9
s                      x[A]                      y[A]                      z[A]                      q[e]
O        0.0456809954823277        1.1355145649926790        0.0000020226347486       -0.3763193278932633
N        0.3339057365725452        0.3201611239039252        0.0000040931249237        0.3397183056005934
N        1.8876479813014613        1.3533451445956393        0.0113069700759037        0.5112529821123207
O        1.6705632012242719        1.4384397831534115        0.0158354634910858       -0.7480756236844903
N        1.6997642132622799        0.9709237405108918        0.0683679187381485        0.2058388192654292
N       -0.2246293614539895        1.2461885642403554       -0.0188048957371829        0.9960443493824324
O        0.8877955557536864        1.6493496782774177        0.0997706744804177       -0.6553163181606571
N        0.9797185595071638        2.0219019365160995        0.0582711262554347        0.7169434276128165
O        0.0621891764626532        1.1626273129288527       -0.0395185734251752       -0.9430113059852492

        RMSE         3.308913782E-01 kcal/mol
         MAE         2.000585621E-01 kcal/mol
     max. AE         3.380309481E+00 kcal/mol

Coordinates in bohr
s                   x[bohr]                   y[bohr]                   z[bohr]                      q[e]
-        0.0863245705998757        2.1458115393045465        0.0000038222257266       -0.3763193278932633
+        0.6309903938413780        0.6050168401971883        0.0000077348851030        0.3397183056005934
+        3.5671377059331011        2.5574516765038817        0.0213670767522051        0.5112529821123207
-        3.1569069255819695        2.7182572381228947        0.0299246890678384       -0.7480756236844903
+        3.2120888409200017        1.8347799582706694        0.1291966421826570        0.2058388192654292
+       -0.4244879728845136        2.3549550870917808       -0.0355361027610650        0.9960443493824324
-        1.6776904557730932        3.1168191770562998        0.1885392501201939       -0.6553163181606571
+        1.8513997574965972        3.8208409125482485        0.1101164696447464        0.7169434276128165
-        0.1175205114821829        2.1970472074124867       -0.0746792806423771       -0.9430113059852492
