3
s                      x[A]                      y[A]                      z[A]                      q[e]
N       -0.9614531816027158       -2.2566215962379346       -0.0258064908935350        0.9999999993390108
O       -0.9835879440790268       -2.2751363055065124       -0.2765239744591405       -0.5505845586881016
O       -0.9295200677871949       -2.2684842539642336        0.2472984281289785       -0.4818246159136795

        RMSE         8.110410277E-01 kcal/mol
         MAE         6.093292173E-01 kcal/mol
     max. AE         4.893181076E+00 kcal/mol

Coordinates in bohr
s                   x[bohr]                   y[bohr]                   z[bohr]                      q[e]
+       -1.8168831956792018       -4.2643967856831715       -0.0487672000479026        0.9999999993390108
-       -1.8587118346114904       -4.2993845154932595       -0.5225545788508710       -0.5505845586881016
-       -1.7565383562347936       -4.2868139599059232        0.4673263004199857       -0.4818246159136795
