3
s                      x[A]                      y[A]                      z[A]                      q[e]
N       -2.2463909766882657       -0.8782617525875510        0.0066282493390544        0.4305631215022986
N       -1.8146104749002190       -0.7326451154134367        0.0437528873908929        0.4839376095910988
O       -1.9579210091179451       -0.8641282134197524        0.0271560767212667       -0.9999999994071577

        RMSE         1.932003566E-01 kcal/mol
         MAE         1.318282131E-01 kcal/mol
     max. AE         9.752094422E-01 kcal/mol

Coordinates in bohr
s                   x[bohr]                   y[bohr]                   z[bohr]                      q[e]
+       -4.2450637166405425       -1.6596741788550744        0.0125255759420597        0.4305631215022986
+       -3.4291168219483805       -1.3844986152858370        0.0826809743667846        0.4839376095910988
-       -3.6999344825129352       -1.6329656606445040        0.0513175476451149       -0.9999999994071577
