2
s                      x[A]                      y[A]                      z[A]                      q[e]
N        0.9762968031094330        2.6640815479750271        0.0238685548216447        0.9293580936839461
O        0.9530064816723591        2.5787520282180063        0.0302228815779398       -0.9999999907795358

        RMSE         3.714607566E-01 kcal/mol
         MAE         2.765285025E-01 kcal/mol
     max. AE         1.707304847E+00 kcal/mol

Coordinates in bohr
s                   x[bohr]                   y[bohr]                   z[bohr]                      q[e]
+        1.8449335750368530        5.0343845015585407        0.0451050316233843        0.9293580936839461
-        1.8009212461469040        4.8731350788009289        0.0571129689044510       -0.9999999907795358
