3
s                      x[A]                      y[A]                      z[A]                      q[e]
O        0.9639003161552672        2.2617810194872243       -0.2409829374805934       -0.3534666517530783
O        1.3145937639404173        2.2419885528169936        0.0179431654360726       -0.4216553744722022
N        1.1030283673061922        2.1630515886644481       -0.0804698197448477        0.9999999980265362

        RMSE         7.654126386E-01 kcal/mol
         MAE         5.693962011E-01 kcal/mol
     max. AE         3.526011752E+00 kcal/mol

Coordinates in bohr
s                   x[bohr]                   y[bohr]                   z[bohr]                      q[e]
-        1.8215076097756686        4.2741466825896488       -0.4553917527466478       -0.3534666517530783
-        2.4842221800821473        4.2367443412356609        0.0339076684979582       -0.4216553744722022
+        2.0844215228196048        4.0875750978122678       -0.1520659206827208        0.9999999980265362
