1
s                      x[A]                      y[A]                      z[A]                      q[e]
N        0.6986027137601841       -1.4969052705011257        0.0623702049779218        0.0171136575059730

        RMSE         4.874745854E+00 kcal/mol
         MAE         3.960003884E+00 kcal/mol
     max. AE         1.741995616E+01 kcal/mol

Coordinates in bohr
s                   x[bohr]                   y[bohr]                   z[bohr]                      q[e]
+        1.3201677995083569       -2.8287409970014945        0.1178626057969388        0.0171136575059730
