1
s                      x[A]                      y[A]                      z[A]                      q[e]
O       -0.9358868714088215        0.8163861080823412        0.0549664101620698       -0.0946586208130090

        RMSE         4.069691232E+00 kcal/mol
         MAE         3.423039755E+00 kcal/mol
     max. AE         1.173235381E+01 kcal/mol

Coordinates in bohr
s                   x[bohr]                   y[bohr]                   z[bohr]                      q[e]
-       -1.7685698713742410        1.5427461569040384        0.1038714613058939       -0.0946586208130090
