2
s                      x[A]                      y[A]                      z[A]                      q[e]
O        1.1685615843392041        2.2411380620538743        0.0519683223482085       -0.7751220278137101
N        1.1144321726064144        2.1582722884928276        0.0411800957470575        0.9999999996149658

        RMSE         8.895828086E-01 kcal/mol
         MAE         6.935240469E-01 kcal/mol
     max. AE         3.966544789E+00 kcal/mol

Coordinates in bohr
s                   x[bohr]                   y[bohr]                   z[bohr]                      q[e]
-        2.2082613551321852        4.2351371466211338        0.0982058964376236       -0.7751220278137101
+        2.1059715916250692        4.0785435294165513        0.0778191027820693        0.9999999996149658
