2
s                      x[A]                      y[A]                      z[A]                      q[e]
O        0.0397456154124523       -0.9205449269995548        0.0415014138620448       -0.9503462193734754
N        0.3969335887214622       -0.6665765114220050        0.0156353485961677        0.9999999864055771

        RMSE         7.032588954E-01 kcal/mol
         MAE         5.296011393E-01 kcal/mol
     max. AE         3.870839921E+00 kcal/mol

Coordinates in bohr
s                   x[bohr]                   y[bohr]                   z[bohr]                      q[e]
-        0.0751083278173104       -1.7395777982087279        0.0784263060185436       -0.9503462193734754
+        0.7500957726786798       -1.2596470482507014        0.0295465267228185        0.9999999864055771
