1
s                      x[A]                      y[A]                      z[A]                      q[e]
N        0.9816799561789074        2.1613473163351293       -0.0007116721441322        0.2248779718012557

        RMSE         2.682540216E+00 kcal/mol
         MAE         2.369344963E+00 kcal/mol
     max. AE         8.621075686E+00 kcal/mol

Coordinates in bohr
s                   x[bohr]                   y[bohr]                   z[bohr]                      q[e]
+        1.8551062600295771        4.0843544898666586       -0.0013448654435272        0.2248779718012557
