2
s                      x[A]                      y[A]                      z[A]                      q[e]
N       -1.0541004383797277       -2.3897592708434869       -0.0263985106498165        0.9822435544168674
O       -1.0960686312233821       -2.2784586132976234       -0.0461139604915765       -0.9999983479944303

        RMSE         2.908939411E-01 kcal/mol
         MAE         2.060252211E-01 kcal/mol
     max. AE         1.823387249E+00 kcal/mol

Coordinates in bohr
s                   x[bohr]                   y[bohr]                   z[bohr]                      q[e]
+       -1.9919611372627211       -4.5159905276679870       -0.0498859552481350        0.9822435544168674
-       -2.0712695277176270       -4.3056627673229340       -0.0871427558892623       -0.9999983479944303
