4
s                      x[A]                      y[A]                      z[A]                      q[e]
O        2.0601761963119736        1.2499326577455363        0.0470156008125476       -0.9999999895757465
N        1.9830001013107643        1.4007239918784831        0.0472712001299395        0.5991566753139699
N        2.2900908599834282        1.0210741135838379        0.0564907126811704        0.3531722349337992
N        1.8648208095584788        1.0091896536909244       -0.3297961232121616        0.0798407137200167

        RMSE         1.631075895E-01 kcal/mol
         MAE         1.008960975E-01 kcal/mol
     max. AE         1.548465586E+00 kcal/mol

Coordinates in bohr
s                   x[bohr]                   y[bohr]                   z[bohr]                      q[e]
-        3.8931687812170717        2.3620303984046780        0.0888466091595675       -0.9999999895757465
+        3.7473270982324713        2.6469847220083480        0.0893296218672921        0.5991566753139699
+        4.3276445277828692        1.9295504284680725        0.1067519755993395        0.3531722349337992
+        3.5240006031200748        1.9070920541214778       -0.6232243501087306        0.0798407137200167
