2
s                      x[A]                      y[A]                      z[A]                      q[e]
O       -0.0802869360056628        0.7104146356450081        0.0863716705517424       -0.8651826635903417
N       -0.2743854411400826        0.4864203619658229        0.0642913672151734        0.9999999708556928

        RMSE         9.362009604E-01 kcal/mol
         MAE         6.932699924E-01 kcal/mol
     max. AE         5.120886483E+00 kcal/mol

Coordinates in bohr
s                   x[bohr]                   y[bohr]                   z[bohr]                      q[e]
-       -0.1517203205028617        1.3424890968859757        0.1632188023410642       -0.8651826635903417
+       -0.5185133365676852        0.9192012659614688        0.1214930762679161        0.9999999708556928
