3
s                      x[A]                      y[A]                      z[A]                      q[e]
N       -1.5691367825434082       -1.3587473410261837        0.0193025638284414        0.4850633232052322
O       -1.0540694085081375       -1.0425519873989675       -0.3643860983266317       -0.2657183594439688
O       -1.1877130453897475       -1.2486397604583581        0.2996853484285560       -0.4390664600753698

        RMSE         1.719510158E-01 kcal/mol
         MAE         1.142905478E-01 kcal/mol
     max. AE         1.193152448E+00 kcal/mol

Coordinates in bohr
s                   x[bohr]                   y[bohr]                   z[bohr]                      q[e]
+       -2.9652387723891174       -2.5676603482335363        0.0364765591549229        0.4850633232052322
-       -1.9919024993037071       -1.9701377277358094       -0.6885899297614808       -0.2657183594439688
-       -2.2444523714200852       -2.3595871766235637        0.5663232323423745       -0.4390664600753698
