1
s                      x[A]                      y[A]                      z[A]                      q[e]
O       -0.6478520368510512       -1.1528276860489655        0.0813437448254201       -0.2197214963141063

        RMSE         3.186175786E+00 kcal/mol
         MAE         2.412388015E+00 kcal/mol
     max. AE         1.659183381E+01 kcal/mol

Coordinates in bohr
s                   x[bohr]                   y[bohr]                   z[bohr]                      q[e]
-       -1.2242629194684991       -2.1785285964778249        0.1537173997391714       -0.2197214963141063
