3
s                      x[A]                      y[A]                      z[A]                      q[e]
N       -0.6428373951827435        0.9942624676966234       -0.0716042700029363        0.6086473716824347
N       -1.2156916457599061        1.0567375317605259        0.0065063229620914        0.2966939994207939
O       -0.8674873299458368        0.8730310530746502       -0.0236825079210763       -0.9999999919162376

        RMSE         1.587768463E-01 kcal/mol
         MAE         1.008839904E-01 kcal/mol
     max. AE         1.456771769E+00 kcal/mol

Coordinates in bohr
s                   x[bohr]                   y[bohr]                   z[bohr]                      q[e]
+       -1.2147866200980886        1.8788837607684792       -0.1353124597188850        0.6086473716824347
+       -2.2973242634933180        1.9969445215196870        0.0122951684821303        0.2966939994207939
-       -1.6393134709023027        1.6497895893311263       -0.0447534539348199       -0.9999999919162376
