6
s                      x[A]                      y[A]                      z[A]                      q[e]
N       -0.3514656333908482        2.6169883928182860       -0.0594787791313519        0.5738016650421138
O       -0.3562179148009982        2.0952190001967170       -0.0708932563486025       -0.9988395610834058
O        0.1064296360827641        0.3560422520200620       -0.0452826249877012       -0.7847326667121617
N        0.2231150144527178        0.8310177063748263       -0.0714774538681878        0.9919523684550744
N       -2.0507636381368100        1.7523337104681063       -0.0479135330403047        0.1403152485631464
O       -0.0840728800013175       -0.6234831697835927       -0.0020255465545528       -0.0623652375161691

        RMSE         1.353495829E+00 kcal/mol
         MAE         7.811210330E-01 kcal/mol
     max. AE         1.211309456E+01 kcal/mol

Coordinates in bohr
s                   x[bohr]                   y[bohr]                   z[bohr]                      q[e]
+       -0.6641737896192691        4.9453913359286084       -0.1123986028348516        0.5738016650421138
-       -0.6731542999555571        3.9593900832273663       -0.1339688386407332       -0.9988395610834058
-        0.2011228638285684        0.6728223454091513       -0.0855717594685683       -0.7847326667121617
+        0.4216262717932017        1.5703958704545515       -0.1350728119559212        0.9919523684550744
+       -3.8753816241260735        3.3114307931920339       -0.0905434551492506        0.1403152485631464
-       -0.1588747177809706       -1.1782124347233141       -0.0038277282424696       -0.0623652375161691
