1
s                      x[A]                      y[A]                      z[A]                      q[e]
N        0.1143293396714008        0.4891507211909379        0.3609372483509980        0.0534375305839726

        RMSE         3.789027841E+00 kcal/mol
         MAE         3.070228163E+00 kcal/mol
     max. AE         1.579060483E+01 kcal/mol

Coordinates in bohr
s                   x[bohr]                   y[bohr]                   z[bohr]                      q[e]
+        0.2160511400833883        0.9243608971210534        0.6820725478597414        0.0534375305839726
