1
s                      x[A]                      y[A]                      z[A]                      q[e]
O       -0.3274570460060937       -0.9359891896725778        0.1260160694695797       -0.1969452335568484

        RMSE         2.566043565E+00 kcal/mol
         MAE         1.997433990E+00 kcal/mol
     max. AE         1.327778534E+01 kcal/mol

Coordinates in bohr
s                   x[bohr]                   y[bohr]                   z[bohr]                      q[e]
-       -0.6188041348029613       -1.7687632248703726        0.2381358587041734       -0.1969452335568484
