2
s                      x[A]                      y[A]                      z[A]                      q[e]
O       -0.4492807726373873        3.0019337936391155        0.3854796938245492       -0.9886293416094798
N       -0.4551077436610104        3.0291177574293626        0.3517878456855117        0.9999999986598872

        RMSE         4.963942444E-01 kcal/mol
         MAE         3.530275227E-01 kcal/mol
     max. AE         2.359523494E+00 kcal/mol

Coordinates in bohr
s                   x[bohr]                   y[bohr]                   z[bohr]                      q[e]
-       -0.8490176137187493        5.6728327167345656        0.7284510482537352       -0.9886293416094798
+       -0.8600289930943756        5.7242029633024947        0.6647826826104384        0.9999999986598872
