1
s                      x[A]                      y[A]                      z[A]                      q[e]
N       -0.5518772666827508        3.2689970827305990       -0.2119383647329647        0.0113706570504074

        RMSE         1.870519333E+00 kcal/mol
         MAE         1.508453092E+00 kcal/mol
     max. AE         6.898628354E+00 kcal/mol

Coordinates in bohr
s                   x[bohr]                   y[bohr]                   z[bohr]                      q[e]
+       -1.0428968888966512        6.1775091912814384       -0.4005054648226934        0.0113706570504074
