1
s                      x[A]                      y[A]                      z[A]                      q[e]
O        1.8598887021615338        0.7490691635598316        0.1155372043326548       -0.0002969418131983

        RMSE         4.682966333E+00 kcal/mol
         MAE         3.975174273E+00 kcal/mol
     max. AE         1.768343292E+01 kcal/mol

Coordinates in bohr
s                   x[bohr]                   y[bohr]                   z[bohr]                      q[e]
-        3.5146802709185039        1.4155355681538566        0.2183336734897771       -0.0002969418131983
