3
s                      x[A]                      y[A]                      z[A]                      q[e]
O       -0.5941166590632120       -0.3051612053149662        0.3284909780609765       -0.1885406221069920
O       -0.5941016416538163       -0.3051699257379309       -0.3284879035374419       -0.1885539433800702
N       -0.7763382128175277       -0.4618745880062224       -0.0000092061085853        0.5465892538662732

        RMSE         8.032101214E-02 kcal/mol
         MAE         5.727547720E-02 kcal/mol
     max. AE         4.142960317E-01 kcal/mol

Coordinates in bohr
s                   x[bohr]                   y[bohr]                   z[bohr]                      q[e]
-       -1.1227177722014730       -0.5766711021598919        0.6207579832190216       -0.1885406221069920
-       -1.1226893934106013       -0.5766875813709934       -0.6207521732115749       -0.1885539433800702
+       -1.4670666029525214       -0.8728164756404294       -0.0000173970239074        0.5465892538662732
