3
s                      x[A]                      y[A]                      z[A]                      q[e]
O        0.0000852159897731       -0.0501175538292282       -0.0000084397626293       -0.9999999999841129
N        0.7833079917932469       -0.4631103553298136       -0.0000089938908298        0.4999979933626355
N       -0.7841423551370342       -0.4561628247584930       -0.0000072080846545        0.5000020066214773

        RMSE         8.268735071E-01 kcal/mol
         MAE         5.363832736E-01 kcal/mol
     max. AE         6.274586313E+00 kcal/mol

Coordinates in bohr
s                   x[bohr]                   y[bohr]                   z[bohr]                      q[e]
-        0.0001610348821809       -0.0947084508151315       -0.0000159488399333       -0.9999999999841129
+        1.4802375763716049       -0.8751517374368069       -0.0000169959904706        0.4999979933626355
+       -1.4818142945804840       -0.8620228074087652       -0.0000136213058861        0.5000020066214773
