4
s                      x[A]                      y[A]                      z[A]                      q[e]
N        0.8342404561629162       -0.4959615226792478       -0.0000084332371604        0.6011213183185878
N        0.3969774602519689       -0.6522806102048873        0.0000066922899273        0.1305804619489196
O        0.5981757064042099       -0.2955063805783830       -0.0000030689959100       -0.9999999990248083
N        0.6137364140748844       -0.1002146483824264       -0.0000015936034376        0.4252311821007647

        RMSE         5.733098433E-02 kcal/mol
         MAE         3.657463164E-02 kcal/mol
     max. AE         4.451336874E-01 kcal/mol

Coordinates in bohr
s                   x[bohr]                   y[bohr]                   z[bohr]                      q[e]
+        1.5764859849249189       -0.9372314466288197       -0.0000159365085843        0.6011213183185878
+        0.7501786778560423       -1.2326317102337494        0.0000126465951147        0.1305804619489196
-        1.1303882600062269       -0.5584261276184541       -0.0000057995617500       -0.9999999990248083
+        1.1597937358221126       -0.1893782392018412       -0.0000030114740497        0.4252311821007647
