10
s                      x[A]                      y[A]                      z[A]                      q[e]
O        2.7823956073526039        0.5593958423469904       -0.0009595495781208       -0.0961173909780993
N        2.1049164748053415        0.4591936887465542        0.0550292517878521        0.0515858509309056
O        2.4147975160872357        0.4527190104943032        0.0334071530442918       -0.9999998354922306
O        1.6156296204032567        2.0811754469601667       -0.3755081537494789       -0.3541443248768544
O        1.5866239328181813        2.1230445499536823        0.3720936681502457       -0.3285934752214669
N        1.5508010986034613        1.9443125650929560       -0.0067053620746801        0.9999981377406965
N        1.7806304836759370       -0.7065478420525513        0.0277687595289429        0.3248885614326290
N        3.6937483779592677        0.7098493455891592        0.1354401970638123        0.0636265458056879
N        3.2733555889637018        0.5592324562414345        0.0981128944688347        0.8316427947716465
O        3.5593712808547715        0.6373945107986937        0.1886294417243887       -0.3530186808615121

        RMSE         8.227734527E-01 kcal/mol
         MAE         5.803467020E-01 kcal/mol
     max. AE         7.343702490E+00 kcal/mol

Coordinates in bohr
s                   x[bohr]                   y[bohr]                   z[bohr]                      q[e]
-        5.2579656705733164        1.0571049377555961       -0.0018132859064470       -0.0961173909780993
+        3.9777156543462482        0.8677503102697137        0.1039902147679010        0.0515858509309056
-        4.5633059538407190        0.8555149416225015        0.0631303698849662       -0.9999998354922306
-        3.0530975027395479        3.9328516137819998       -0.7096075684628252       -0.3541443248768544
-        2.9982846971231631        4.0119727515583303        0.7031551258209546       -0.3285934752214669
+        2.9305893514196621        3.6742182503120833       -0.0126712978931771        0.9999981377406965
+        3.3649039447890270       -1.3351819160125573        0.0524753503533993        0.3248885614326290
+        6.9801728106971046        1.3414208534989767        0.2559448788286428        0.0636265458056879
+        6.1857455743781031        1.0567961827633905        0.1854064999220437        0.8316427947716465
-        6.7262368996355546        1.2045010592797032        0.3564579840571022       -0.3530186808615121
