3
s                      x[A]                      y[A]                      z[A]                      q[e]
O        0.0252107003716951        1.0969823450791572       -0.2330740021346488       -0.9999999975352027
N       -0.3561039623160996        0.4706122944451296        0.0236814411389254        0.2985432509394451
N        0.2685001963734551        1.0417153209624070       -0.2101184085409803        0.7548942771797302

        RMSE         1.497570933E-01 kcal/mol
         MAE         1.070177674E-01 kcal/mol
     max. AE         1.264695660E+00 kcal/mol

Coordinates in bohr
s                   x[bohr]                   y[bohr]                   z[bohr]                      q[e]
-        0.0476413191334815        2.0729961966620780       -0.4404460309988594       -0.9999999975352027
+       -0.6729389609677833        0.8893283477746134        0.0447514380087190        0.2985432509394451
+        0.5073918357774753        1.9685566573123472       -0.3970662460595118        0.7548942771797302
