4
s                      x[A]                      y[A]                      z[A]                      q[e]
O        0.0286443861577969        1.1763305036338108       -0.3616380211217254       -0.9999999959973788
N        0.1736383945486396        1.1012193203957585       -0.3003930980727308        0.9145331921364312
O       -0.3342574240150561        0.8233533548583287        0.2987379081772564       -0.8610956211771477
N       -0.3476233643344488        0.7114395672281530        0.2528116066285570        0.9999999556220678

        RMSE         7.872236884E-02 kcal/mol
         MAE         5.496358917E-02 kcal/mol
     max. AE         7.002879972E-01 kcal/mol

Coordinates in bohr
s                   x[bohr]                   y[bohr]                   z[bohr]                      q[e]
-        0.0541300448700913        2.2229424848897770       -0.6833968164725943       -0.9999999959973788
+        0.3281290105611184        2.0810029196107793       -0.5676606853352550        0.9145331921364312
-       -0.6316549867894865        1.5559123451591339        0.5645328297471832       -0.8610956211771477
+       -0.6569129534023530        1.3444259368754516        0.4777446978649517        0.9999999556220678
