3
s                      x[A]                      y[A]                      z[A]                      q[e]
O       -0.6141587028602834        2.8596927321508985        0.3354200983972025       -0.9999999918896395
N       -0.7138251264252478        2.7837313939354829        0.3227669368401880        0.6811057595825276
N       -0.4519105934603128        3.0997345580861468        0.2667705177709804        0.3302648893575193

        RMSE         3.349400203E-01 kcal/mol
         MAE         2.308593272E-01 kcal/mol
     max. AE         1.560766247E+00 kcal/mol

Coordinates in bohr
s                   x[bohr]                   y[bohr]                   z[bohr]                      q[e]
-       -1.1605917459723689        5.4040360667274285        0.6338521229448290       -0.9999999918896395
+       -1.3489339904140278        5.2604899413770188        0.6099411129808999        0.6811057595825276
+       -0.8539872548331046        5.8576493763998672        0.5041232169337335        0.3302648893575193
