2
s                      x[A]                      y[A]                      z[A]                      q[e]
O        1.9379299376106480       -0.7702965361518381        0.3053208610116503       -0.8782770948414238
N        1.8630835523640292       -0.7554108753772013        0.2605732496914469        0.9999999996178139

        RMSE         1.149045407E+00 kcal/mol
         MAE         8.659539199E-01 kcal/mol
     max. AE         6.864114994E+00 kcal/mol

Coordinates in bohr
s                   x[bohr]                   y[bohr]                   z[bohr]                      q[e]
-        3.6621568324097007       -1.4556494887157989        0.5769728077009940       -0.8782770948414238
+        3.5207176628130838       -1.4275196666552650        0.4924120775373730        0.9999999996178139
