1
s                      x[A]                      y[A]                      z[A]                      q[e]
O        3.0958812976438548        0.3402690668873686        0.1916637930475797       -0.0286874297441314

        RMSE         1.572064556E+00 kcal/mol
         MAE         1.196593125E+00 kcal/mol
     max. AE         6.948446485E+00 kcal/mol

Coordinates in bohr
s                   x[bohr]                   y[bohr]                   z[bohr]                      q[e]
-        5.8503677694738752        0.6430153453822176        0.3621920770263538       -0.0286874297441314
