2
s                      x[A]                      y[A]                      z[A]                      q[e]
O       -0.3485694554948594       -0.4997060388053186        0.0309464962866749       -0.9999999986354766
N       -0.3343944534430839       -0.3518479453742947        0.0080418453490077        0.8030547650786283

        RMSE         2.353778342E+00 kcal/mol
         MAE         1.780821456E+00 kcal/mol
     max. AE         1.422992289E+01 kcal/mol

Coordinates in bohr
s                   x[bohr]                   y[bohr]                   z[bohr]                      q[e]
-       -0.6587008065852455       -0.9443075565794538        0.0584804025243132       -0.9999999986354766
+       -0.6319139348795870       -0.6648962545624635        0.0151968852529114        0.8030547650786283
