3
s                      x[A]                      y[A]                      z[A]                      q[e]
N        1.0304801331407123        1.2549188735199261        0.0286129164086994        0.5231642854088490
N        1.7548535636466684        1.5765354803831821       -0.0908337041094276        0.4765387725873631
O        1.5961443796796844        1.2372349904053892       -0.0115048855911130       -0.9999999998094103

        RMSE         2.563860961E-01 kcal/mol
         MAE         1.740445190E-01 kcal/mol
     max. AE         1.870832144E+00 kcal/mol

Coordinates in bohr
s                   x[bohr]                   y[bohr]                   z[bohr]                      q[e]
+        1.9473252293612653        2.3714529806207123        0.0540705756630603        0.5231642854088490
+        3.3161926255758809        2.9792202849913068       -0.1716508237276915        0.4765387725873631
-        3.0162757342833784        2.3380352846996293       -0.0217410828719296       -0.9999999998094103
