2
s                      x[A]                      y[A]                      z[A]                      q[e]
O        0.6296379954426403       -0.4322657093447408       -0.0000026710345223       -0.8430670258273492
N        0.7456420893239638       -0.4957315863388415       -0.0000042637133056        0.9999999891708129

        RMSE         5.535031074E-01 kcal/mol
         MAE         4.223198515E-01 kcal/mol
     max. AE         2.796163479E+00 kcal/mol

Coordinates in bohr
s                   x[bohr]                   y[bohr]                   z[bohr]                      q[e]
-        1.1898433695688544       -0.8168638040883167       -0.0000050475237188       -0.8430670258273492
+        1.4090593364364539       -0.9367969299191616       -0.0000080572504250        0.9999999891708129
