6
s                      x[A]                      y[A]                      z[A]                      q[e]
N        0.1928837961518916       -0.2280215093967948        0.0207363494003437        0.1959548213333761
O        0.0805480020417025        0.5980239525004526       -0.1386966370545780       -0.4453037634428776
O        0.4331145918988777       -0.3447620419289285        0.0000056675107477       -0.0366878445243718
O        0.1216880722253939        0.3935120908306238        0.2486047492416230       -0.1152704503527401
N       -0.3636427812194493       -0.0026523816502044       -0.2482108008596657        0.1719582913566773
O       -1.0921035493445790       -0.6825021694520396       -0.0000172578869701       -0.0970787060927388

        RMSE         4.150828412E+01 kcal/mol
         MAE         4.059002945E+01 kcal/mol
     max. AE         7.923509245E+01 kcal/mol

Coordinates in bohr
s                   x[bohr]                   y[bohr]                   z[bohr]                      q[e]
+        0.3644975487657117       -0.4308982034734508        0.0391860212084513        0.1959548213333761
-        0.1522136638116357        1.1301014866896566       -0.2620986585551784       -0.4453037634428776
-        0.8184679596283146       -0.6515058376992833        0.0000107100431261       -0.0366878445243718
-        0.2299571292409260        0.7436300787261636        0.4697948895547872       -0.1152704503527401
+       -0.6871852640045386       -0.0050122748990762       -0.4690504350053206        0.1719582913566773
-       -2.0637766089016734       -1.2897421802951647       -0.0000326126798776       -0.0970787060927388
