15
s                      x[A]                      y[A]                      z[A]                      q[e]
O        0.1295941350112442        0.8746812272556285       -0.0000058200687451       -0.1959923982666442
N        0.1293544197939256        0.1803690841673160       -0.0000043729396461        0.0631537140566894
N        1.9706540907265626        0.9286816209510154        0.0018388201554522        0.2049118153886317
O        0.8407440270546522        1.2089810277226685       -0.0055222750959100       -0.9554087063131085
N        0.5561704562461051        0.6178564010606794        0.0009063006473195        0.5362165292040525
N        0.9146066477247230        2.3230761596716323       -0.0074989413370373        0.2689587610949087
N       -0.8224056549254527        1.5431811130791948       -0.0020680925062902        0.1148458782692669
N       -1.2919565048831831        1.0537189387091013       -0.1427827639162781        0.0165485372133908
O       -0.7220578101560059       -1.2446809450367056       -0.0156953755140899       -0.9884176457198158
N       -1.0380812350991524       -0.9433618277806936       -0.0072183048819529        0.9852611704667007
N       -0.9179371602747576       -2.2245958436129047       -0.0106122675936169        0.3723888540056727
N        0.8764024814651044       -1.4813412578467919       -0.0353544622002301        0.1248457641790507
N       -1.8561026205455455       -1.0892953192917711        0.0069855504300429        0.4313770226716526
O       -1.3658616228213436       -1.1668051937168966        0.0065263858296509       -0.9684123653639721
O       -0.7736117279390401       -2.5635560057626594       -0.2333050644065748       -0.0102769308864758

        RMSE         5.701294261E-01 kcal/mol
         MAE         3.263426945E-01 kcal/mol
     max. AE         4.726046120E+00 kcal/mol

Coordinates in bohr
s                   x[bohr]                   y[bohr]                   z[bohr]                      q[e]
-        0.2448974226368572        1.6529079665924769       -0.0000109983359595       -0.1959923982666442
+        0.2444444265280205        0.3408481705758790       -0.0000082636582943        0.0631537140566894
+        3.7239965194863265        1.7549539213436576        0.0034748664877765        0.2049118153886317
-        1.5887759527477994        2.2846430332703815       -0.0104355875207063       -0.9554087063131085
+        1.0510098413760647        1.1675793828657157        0.0017126600107590        0.5362165292040525
+        1.7283560767228134        4.3899777103597248       -0.0141709453578750        0.2689587610949087
+       -1.5541214518368833        2.9161896656988455       -0.0039081284390001        0.1148458782692669
+       -2.4414439602329354        1.9912402073682847       -0.2698203192376680        0.0165485372133908
-       -1.3644915079426732       -2.3521060996954017       -0.0296599611578467       -0.9884176457198158
+       -1.9616892303143980       -1.7826954917168250       -0.0136406193169462        0.9852611704667007
+       -1.7346498332997791       -4.2038768842602030       -0.0200542793220073        0.3723888540056727
+        1.6561606656406778       -2.7993292756716439       -0.0668102508712862        0.1248457641790507
+       -3.5075256135756554       -2.0584698232045864        0.0132007771483553        0.4313770226716526
-       -2.5811043924057193       -2.2049422578867017        0.0123330818071091       -0.9684123653639721
-       -1.4619142932469777       -4.8444187581640161       -0.4408826754107256       -0.0102769308864758
