11
s                      x[A]                      y[A]                      z[A]                      q[e]
O       -0.7640907425711393        1.9984382551763897        0.0678639678114475       -0.0888002410939181
O       -0.0672269224482623        1.2338751167252970       -0.3211557622161432       -0.0524445750619306
O        2.6979890150284689        0.4426532751656586        0.0128149386046208       -0.7441211517345475
N       -2.1754345301843587        1.7763410657113707        0.0300460175594956        0.1087092647339323
N       -0.3052800195932599        3.1484766496046501        0.0684666817828226        0.1785434039874448
O       -0.2899993662491080        2.6317566516653876        0.1146826525598865       -0.1601244768890766
O       -0.8492677866169435       -0.3227430245230242        0.1340137448691237       -0.0909433983521538
N        1.3867513036148005        1.9539264523171225       -0.0018557539873902        0.1426333432395598
N        1.6942434700980893        2.1524297057826871        0.0190665798714948        0.0454913843577117
N        2.3641773939494648       -0.7785059865284119        0.0687597870807403        0.1703502429341781
N        3.1881371385946276        0.5665493904049157        0.0017133313086864        0.4907062038787999

        RMSE         1.280310785E+00 kcal/mol
         MAE         7.613441835E-01 kcal/mol
     max. AE         1.284927015E+01 kcal/mol

Coordinates in bohr
s                   x[bohr]                   y[bohr]                   z[bohr]                      q[e]
-       -1.4439222384571540        3.7765009809211816        0.1282443129505214       -0.0888002410939181
-       -0.1270404716846086        2.3316860436281210       -0.6068964342011678       -0.0524445750619306
-        5.0984603278975307        0.8364934586000178        0.0242167242772901       -0.7441211517345475
+       -4.1109754659124587        3.3567981195983778        0.0567787443481434        0.1087092647339323
+       -0.5768956286056609        5.9497585801518396        0.1293832772884075        0.1785434039874448
-       -0.5480193787671526        4.9732993004994999        0.2167188046792206       -0.1601244768890766
-       -1.6048835238797821       -0.6098959252504353        0.2532492748496231       -0.0909433983521538
+        2.6205801679535892        3.6923858641667957       -0.0035068667923938        0.1426333432395598
+        3.2016561483306880        4.0675026482290502        0.0360306141062921        0.0454913843577117
+        4.4676477865631075       -1.4711631015680600        0.1299371660273927        0.1703502429341781
+        6.0247060423446328        1.0706231844103757        0.0032377269355895        0.4907062038787999
