13
s                      x[A]                      y[A]                      z[A]                      q[e]
O       -0.9345020735053793        1.8335726356667212        0.3894550620093440       -0.0751807537800089
O       -0.2737932944381475        1.0737207694394488       -0.4114276431793797       -0.1017524116613699
O        2.5265493290417402        0.3147591721722642        0.1195669737573985       -0.4879452096484884
N       -1.3798405007056336        1.6347955960575438       -0.0456026175974871        0.1807068491766421
N       -0.1877592940514390        3.0949512057795334        0.1198359621473274        0.0496790880895346
N       -0.7476332200617660       -1.4542440370186862        0.2156700714815117        0.8547179385432256
O       -0.6874637353651120       -1.2831248603367755        0.1946589237867998       -0.9993283873954776
O        1.6528806660689876        1.5982523398018937       -0.1464843497635096       -0.2465230551224246
O        1.7459027764132484        2.4558220816029239        0.0694353052739499       -0.0513529901309532
N        1.7605644081893668        2.1349746411204467       -0.0173340658140782        0.3427667660566005
N        2.2351654698082575       -0.2392681099722848        0.0195410509198782        0.4775334928380480
N        3.2662274969404299        0.4108806925370568        0.0632286765031889        0.7378591208208307
O        3.0704545890601218        0.2787128216855501        0.0491206611222843       -0.6811804477861586

        RMSE         1.324000338E+00 kcal/mol
         MAE         8.407914427E-01 kcal/mol
     max. AE         1.380023903E+01 kcal/mol

Coordinates in bohr
s                   x[bohr]                   y[bohr]                   z[bohr]                      q[e]
-       -1.7659529825976270        3.4649501125439710        0.7359634053708558       -0.0751807537800089
-       -0.5173943414749348        2.0290381894564078       -0.7774855660516150       -0.1017524116613699
-        4.7744862743481233        0.5948086308814062        0.2259488340512864       -0.4879452096484884
+       -2.6075206431482467        3.0893159476533429       -0.0861764578632343        0.1807068491766421
+       -0.3548136432665228        5.8486101505787911        0.2264571484391799        0.0496790880895346
+       -1.4128220282108810       -2.7481229495454724        0.4075573685579699        0.8547179385432256
-       -1.2991181810242787       -2.4247545708028317        0.3678520538334199       -0.9993283873954776
-        3.1234917769347024        3.0202592015977410       -0.2768153027188063       -0.2465230551224246
-        3.2992780890974727        4.6408311470812720        0.1312137104053229       -0.0513529901309532
+        3.3269845577066461        4.0345173565152592       -0.0327566370292690        0.3427667660566005
+        4.2238505830178843       -0.4521511984035433        0.0369272344421955        0.4775334928380480
+        6.1722754326570586        0.7764519791334815        0.1194848818661976        0.7378591208208307
-        5.8023182539787923        0.5266909006392532        0.0928245966225413       -0.6811804477861586
