17
s                      x[A]                      y[A]                      z[A]                      q[e]
O       -0.9801569137071964        2.3449081080011753        0.1669275481342024       -0.0876742125927317
O       -0.3448700553577891        1.1806818011883162       -0.0614028234067185       -0.4485657049379616
N        0.3967746708513990        1.0512666772449262        0.2962245747867233        0.3352144767763847
O       -0.4765698931535904        0.7112913598032583        0.1517692484482135       -0.1857999365573439
N        0.1390305951658432        0.7518384243772603       -0.3511277846525249        0.0974820792013575
O        1.9576143093122187        0.9062662479573371       -0.0696102075501660       -0.5848157219002935
N        1.1453948604616651        1.1725572034268248        0.0068364746850443        0.3661962867718084
O        2.0656538386390833       -0.1059037605273972        0.0080704156922595       -0.2182455947189871
N       -1.4197836867183244        1.7374622010175207       -0.0805209005231155        0.2778261494771582
N       -0.1513782365520657        3.0146451843829811        0.1025850541334164        0.0893831842376004
O       -0.4766013874241892       -1.1448432312046692        0.5073624011170902       -0.0153311802248120
O        1.4745043426833093        1.6252811751792817        0.1190828295955181       -0.5646932668122820
N        1.9404774472908664        1.3811395933495239        0.0141691481614130        0.8833259979965326
N        1.5555051353503739        2.1803820725789702        0.0169492681135291        0.2618830773944935
O        1.7025792849164281        1.3708580072234622       -0.0136320251921471       -0.5501120242689497
N        2.2271516435370913       -0.8086019718984644       -0.0051957510833398        0.1640908954435890
N        2.8634998169445245        0.3726532734629450       -0.2289841574699242        0.1798354947144373

        RMSE         1.567341089E+00 kcal/mol
         MAE         1.047028846E+00 kcal/mol
     max. AE         1.365163287E+01 kcal/mol

Coordinates in bohr
s                   x[bohr]                   y[bohr]                   z[bohr]                      q[e]
-       -1.8522281268806031        4.4312341134877071        0.3154473487678214       -0.0876742125927317
-       -0.6517099534977014        2.2311652455581665       -0.1160345195685493       -0.4485657049379616
+        0.7497954614278193        1.9866061048129795        0.5597833179771072        0.3352144767763847
-       -0.9005865776989856        1.3441458654326413        0.2868023138336890       -0.1857999365573439
+        0.2627297479228446        1.4207687126687585       -0.6635353480320064        0.0974820792013575
-        3.6993549038773814        1.7125950053856220       -0.1315442278060905       -0.5848157219002935
+        2.1644825917795321        2.2158119809094399        0.0129190648183592        0.3661962867718084
-        3.9035200250285249       -0.2001291030528520        0.0152508753769676       -0.2182455947189871
+       -2.6830023252904502        3.2833277132582697       -0.1521624493639222        0.2778261494771582
+       -0.2860634084381736        5.6968537639141505        0.1938576568774225        0.0893831842376004
-       -0.9006460932449383       -2.1634401635610203        0.9587759844659793       -0.0153311802248120
-        2.7864093784696720        3.0713362979510896        0.2250339341800932       -0.5646932668122820
+        3.6669709280072658        2.6099755724567961        0.0267758094561049        0.8833259979965326
+        2.9394786925554168        4.1203249660323662        0.0320294747615253        0.2618830773944935
-        3.2174085553698815        2.5905461905432325       -0.0257607941484997       -0.5501120242689497
+        4.2087066461483813       -1.5280362713932447       -0.0098185465635631        0.1640908954435890
+        5.4112304143237768        0.7042126266003076       -0.4327173446868651        0.1798354947144373
