18
s                      x[A]                      y[A]                      z[A]                      q[e]
O       -0.8518584906066895        2.2365902646843452        0.1921130812536680       -0.2197225147025143
O       -0.0569332165147725        1.1964969544607160       -0.4268813786199165       -0.1140989732535099
O        1.0440572161856276        1.1532785880430612       -0.3484457085062228       -0.2173850866371156
O        1.0710495154966697        1.2336278361090451        0.3836506606265562       -0.4540651569338273
N        0.9625818685271472        1.2481316846797195        0.0468180603373995        0.9998533429375419
O        2.1157306177962645        0.5499789863261835       -0.2061685712679467       -0.3241486735149913
O       -1.8505200968170452        1.3974192188749779       -0.1102961456487180       -0.3954767577176813
O       -1.6447747067608176        1.5361299204614218        0.0416251350540083       -0.5529095562675755
N       -1.8619810553025569        1.5325101062496986       -0.0221561103834960        0.9659961004868458
N       -0.6931216544538829        3.1916344646467358        0.0505724799569580        0.0973867202945218
N       -0.7000946121209457        2.2088891643790780        0.2691131170027081        0.0945970707274703
O       -0.5279631154698119       -0.6899564343519021        0.5119540839852860       -0.0666050892168294
O        1.6493740161553099        2.0639400483718635        0.0044201664862844       -0.4945239328776328
N        2.0214000600598698        1.9916459386440146       -0.0154050180731925        0.6442514822695140
N        1.5992642452771959        2.3151805669814025        0.0073205801759475        0.5807690570830580
O        1.8275965880488172        2.1284810255918072       -0.0120616868689291       -0.7144016054918818
N        2.2679268413771809       -1.2468417800016389       -0.0016291797482292        0.0753996165287922
N        3.6852908491483927        0.4247518444480102       -0.3080751367748316        0.0950839562858154

        RMSE         1.315551122E+00 kcal/mol
         MAE         7.991415139E-01 kcal/mol
     max. AE         1.262722011E+01 kcal/mol

Coordinates in bohr
s                   x[bohr]                   y[bohr]                   z[bohr]                      q[e]
-       -1.6097792448925330        4.2265430551186460        0.3630411086872589       -0.2197225147025143
-       -0.1075881866543128        2.2610515538751406       -0.8066888936495109       -0.1140989732535099
-        1.9729821978987523        2.1793806777560887       -0.6584669586678722       -0.2173850866371156
-        2.0239902510930059        2.3312187509872704        0.7249946764351581       -0.4540651569338273
+        1.8190161048477624        2.3586270525509581        0.0884733117628449        0.9998533429375419
-        3.9981514228806319        1.0393096589134025       -0.3896021353733531       -0.3241486735149913
-       -3.4969761726399198        2.6407396061249169       -0.2084295079696841       -0.3954767577176813
-       -3.1081737338581554        2.9028648427934045        0.0786601051872699       -0.5529095562675755
+       -3.5186342453127790        2.8960243853082077       -0.0418689806302199        0.9659961004868458
+       -1.3098100985420555        6.0313150307545458        0.0955681366038559        0.0973867202945218
+       -1.3229870788172158        4.1741955621678546        0.5085500879034068        0.0945970707274703
-       -0.9977056925814115       -1.3038286994225183        0.9674530075418259       -0.0666050892168294
-        3.1168651689799911        3.9002814307870040        0.0083529040880047       -0.4945239328776328
+        3.8198925034971589        3.7636653629175729       -0.0291112651160620        0.6442514822695140
+        3.0221714258109134        4.3750572025770236        0.0138338916119967        0.5807690570830580
-        3.4536570192334377        4.0222462016021101       -0.0227932847933069       -0.7144016054918818
+        4.2857606027775104       -2.3561894859814387       -0.0030787035332955        0.0753996165287922
+        6.9641903975463819        0.8026646572898044       -0.5821776345673929        0.0950839562858154
