20
s                      x[A]                      y[A]                      z[A]                      q[e]
N       -0.8558480261778276        2.0151677381539450       -0.0379599460259457        0.2242662697347539
O       -0.4788857802639042        1.9080684165782102       -0.2752056782396859       -0.3621970049185571
N        0.4550359221493022        0.6914477132132373        0.1991072164069171        0.5879515293877612
O        0.3565462481800769        1.1141197741420663        0.0879632538207133       -0.2119646059379569
O       -0.0093900119158579        0.3803947401134669        0.0290497742699055       -0.5002076350244221
N        0.1719504271370422        1.1097289777783004       -0.3369623200070683        0.4012577245738279
N        2.1504036232103618        0.5585331456306831        0.0065741261398345        0.0277167703410878
O       -1.1532357764308070        1.4964783365118268        0.0030935805194036       -0.7442872303680147
N       -0.4213552121639744        3.0089238435514156       -0.0424382797322227        0.1951809051709971
N       -1.3391753115263936        1.6627141748626508        0.0224742297888084        0.9980226713968595
N       -1.1732307256528529        2.1001087856668583       -0.1703640712709260        0.0560341970237470
O       -1.0000742276549512        2.1267188876028706        0.0665999390239691       -0.5090228427174530
O       -0.5721858576911032       -0.5755751612927346        0.3197298504228723       -0.0145190844619193
N        1.7279061332133820        1.7928780858940438       -0.0083846769782325        0.3505597881337329
O        1.6281363203776880        1.1835877376370560        0.0234982454196479       -0.4656078340918266
O        2.2806533864597767        0.3866156455015040       -0.0601379127285470       -0.4137423499909702
N        2.5238450526000760        0.7168535311733338        0.0534176495055498        0.1496723607385847
N        2.1757653950991309       -0.9626890913719635       -0.0778766062913215        0.1506494788886314
N        3.2977247149422801        0.2812210812147712        0.0506914829522032        0.5300682894974481
O        3.1423532105656062        0.2131668074473559        0.0875024380375436       -0.4498313973763113

        RMSE         1.243976940E+00 kcal/mol
         MAE         7.447596424E-01 kcal/mol
     max. AE         1.271552912E+01 kcal/mol

Coordinates in bohr
s                   x[bohr]                   y[bohr]                   z[bohr]                      q[e]
+       -1.6173183744897561        3.8081151219692697       -0.0717339017261987        0.2242662697347539
-       -0.9049629700749565        3.6057267359687946       -0.5200633600438753       -0.3621970049185571
+        0.8598932701073307        1.3066468080471265        0.3762581086113367        0.5879515293877612
-        0.6737747601198618        2.1053812440854376        0.1662264588252800       -0.2119646059379569
-       -0.0177445508357570        0.7188418783791594        0.0548961173764929       -0.5002076350244221
+        0.3249392144445014        2.0970838414852637       -0.6367664994122380        0.4012577245738279
+        4.0636739070597923        1.0554746772324437        0.0124232979185004        0.0277167703410878
-       -2.1792997755339392        2.8279342086880703        0.0058460199287245       -0.7442872303680147
+       -0.7962459525240885        5.6860419966720928       -0.0801967259294687        0.1951809051709971
+       -2.5306745727595517        3.1420744154070070        0.0424701391814538        0.9980226713968595
+       -2.2170847534560418        3.9686304385781765       -0.3219414363200283        0.0560341970237470
-       -1.8898663953966208        4.0189162434077552        0.1258556447274927       -0.5090228427174530
-       -1.0812745638963728       -1.0876794194594839        0.6042018514328255       -0.0145190844619193
+        3.2652693622721425        3.3880485586747988       -0.0158447431392907        0.3505597881337329
-        3.0767317404244934        2.2366566695842702        0.0444052482719283       -0.4656078340918266
-        4.3098102875069086        0.7305976858149343       -0.1136441848136382       -0.4137423499909702
+        4.7693759325058505        1.3546568459849466        0.1009447278311869        0.1496723607385847
+        4.1116007099859013       -1.8192187266588575       -0.1471654574707038        0.1506494788886314
+        6.2317965483943958        0.5314308242010509        0.0957930196729786        0.5300682894974481
-        5.9381869574221096        0.4028268851137068        0.1653556432008009       -0.4498313973763113
