22
s                      x[A]                      y[A]                      z[A]                      q[e]
O       -0.9428294913577416        1.9145514131344246        0.2726690484226884       -0.1246906216875994
N        0.0878296132414057        1.1123792784269135       -0.4280423264708818        0.0100642922410218
N        1.0565605178665309        0.9631145590461094        0.0939852505722493        0.8579304437502997
O        1.4048519887384310        1.1612732700200477       -0.4155192539516068       -0.7891464881407131
O        1.6630536988376641        1.1219904585714169        0.3014182058383783       -0.7962739710674307
N        1.4975642766075399        1.2852774894927894       -0.2377026703131412        0.5837153523894332
N        2.2215358270213366        0.6623434728207582       -0.0527209169525093        0.1694099785140887
N       -2.0984802652273635        1.7211084341159195        0.1035368465040392        0.1411275181245888
N       -0.2708977112483527        2.7294509654534487       -0.0268152225673299        0.7161700973996843
N       -0.8333983788200952        2.7391043234117638        0.0703136636558502        0.6671459845149451
O       -0.7932102795301760        2.6394499519629502       -0.0686364704298367       -0.4571847265020428
O       -0.4961370374029671        2.6364067531405055        0.0666896615893214       -0.9011294425064842
N       -0.6557229716978753       -0.3630155348209286       -0.0429834398105725        0.6170946569306787
O       -0.6080140590096726       -0.2715624839763164        0.0349063546574259       -0.8227830896538584
O        1.3744389383361997        1.9888621436146205        0.0005515728187153       -0.4603313346541750
N        1.7668510906708743        1.9660008717516206        0.0324430872956877        0.9193109818248983
N        1.7473127166363984        1.7642366455406380        0.0171585840380388        0.6272162805250283
O        1.8333161430040372        1.8965888580025971        0.0100771856891627       -0.8926729004532084
O        1.9818983422520826       -0.5183994245765615       -0.0540775669345234       -0.6251020826654239
N        2.1448959720781713       -0.6530576878494820       -0.0339674644756978        0.6787539610355691
N        3.4209753126605507        0.2312726158980434        0.0897289270006119        0.7025600580735349
O        3.2050778585563346        0.1564589392802688        0.0661592642433640       -0.8211849479928351

        RMSE         1.301673881E+00 kcal/mol
         MAE         7.752989905E-01 kcal/mol
     max. AE         1.287307805E+01 kcal/mol

Coordinates in bohr
s                   x[bohr]                   y[bohr]                   z[bohr]                      q[e]
-       -1.7816895216708399        3.6179778239323257        0.5152698244080798       -0.1246906216875994
+        0.1659739147311411        2.1020921838612661       -0.8088827671337742        0.0100642922410218
+        1.9966100137396361        1.8200227440382291        0.1776063834140799        0.8579304437502997
-        2.6547855055203997        2.1944884371527271       -0.7852175898230973       -0.7891464881407131
-        3.1427160227328086        2.1202546820768156        0.5695978582614087       -0.7962739710674307
+        2.8299863380576218        2.4288224503573734       -0.4491929461818319        0.5837153523894332
+        4.1980942909627821        1.2516477646158537       -0.0996280941232494        0.1694099785140887
+       -3.9655529809578214        3.2524235726946662        0.1956562837861999        0.1411275181245888
+       -0.5119224822727430        5.1579147975734738       -0.0506734266454497        0.7161700973996843
+       -1.5748946893705338        5.1761570003056985        0.1328735671871146        0.6671459845149451
-       -1.4989501882098804        4.9878375310627963       -0.1297041313304760       -0.4571847265020428
-       -0.9375631213876345        4.9820867187430604        0.1260251958032820       -0.9011294425064842
+       -1.2391368306803190       -0.6859999400981547       -0.0812269291720829        0.6170946569306787
-       -1.1489800519562361       -0.5131787206642680        0.0659634503406343       -0.8227830896538584
-        2.5973131696204375        3.7584047527226074        0.0010423215656188       -0.4603313346541750
+        3.3388646658344090        3.7152032100219028        0.0613085496531701        0.9193109818248983
+        3.3019424899724932        3.3339240805682255        0.0324250245325456        0.6272162805250283
-        3.4644654116583089        3.5840335142197350        0.0190431210679004       -0.8926729004532084
-        3.7452450753553208       -0.9796329360446332       -0.1021917910373632       -0.6251020826654239
+        4.0532659548253847       -1.2341001741602495       -0.0641892050352869        0.6787539610355691
+        6.4647064228809050        0.4370419043655061        0.1695630975623546        0.7025600580735349
-        6.0567193634403349        0.2956645451193439        0.1250228900817529       -0.8211849479928351
