23
s                      x[A]                      y[A]                      z[A]                      q[e]
N       -0.7953258554652129        1.8588037451813308        0.0214501836688326        0.1298544203520996
O       -0.4026334181567111        1.6393418306778598       -0.1187166553565826       -0.4563088220307613
N        0.1469798476739809        1.2984666158818954       -0.0535060025889783        0.0111141000551278
O        0.5145419847782126        0.8241630959081560        0.1517560914345496       -0.2177521210549482
O        0.5169576776713498        0.9122911286635118        0.2309765241582780       -0.0022886958879721
N        0.5148134271213826        0.9980932563845882       -0.1760244570673449        0.2661596488605359
O        1.8686146014942839        0.7551423546284979       -0.0895387572642157       -0.4582483197987693
O        1.8268140134074917        0.9374613417332077        0.2307506110827889       -0.2585405277905979
N        1.3364061176154050        1.2002868902068311        0.1022213461420128        0.9922877428602852
O        2.8055539704130052        0.3708521099202797        0.1256531877862570       -0.3833238389469020
O       -1.8997637935437464        1.4493348106771609       -0.1573335146165953       -0.0783579746842726
N       -2.2714437175297837        1.6255023255876146       -0.1223824028650932        0.1461231001422743
N       -0.1345455382269821        2.9542252334560732       -0.0160318094607677        0.1350284418706946
O       -0.6947241639742077       -0.7515860209607439        0.5349554639768866       -0.0592379851067173
O        1.6099990801895563        1.7795043545463640        0.0138447245367584       -0.7655821611688451
N        1.8644338205809354        1.8014727898734790       -0.0481314802981431        0.7726681480664960
N        1.5816559637850165        2.0341058645351269        0.0202123326779377        0.5550168842673102
O        1.6175075909685144        1.7918253287530790        0.0047054820455484       -0.8668986366157673
O        1.9614214932202891       -0.8370494932322458       -0.0418868730378313       -0.7518412872071155
N        1.9791625517942584       -0.5974634473393197        0.0761181631037598        0.4507368465310928
N        2.0359527462846914       -1.0484691368450805       -0.0805059755660721        0.4429843621865353
N        3.2012638544123755        0.4282102665158364        0.0667584948356310        0.5350971343173884
O        3.2153235503683879        0.2747646117488262        0.0429189145537828       -0.1386904592171717

        RMSE         1.312425049E+00 kcal/mol
         MAE         7.798986911E-01 kcal/mol
     max. AE         1.291358643E+01 kcal/mol

Coordinates in bohr
s                   x[bohr]                   y[bohr]                   z[bohr]                      q[e]
+       -1.5029480473247094        3.5126299993680163        0.0405349724748618        0.1298544203520996
-       -0.7608668892731233        3.0979070859878148       -0.2243419651543072       -0.4563088220307613
+        0.2777516580653337        2.4537462870668323       -0.1011116909612065        0.0111141000551278
-        0.9723434312803124        1.5574425339758480        0.2867774506812353       -0.2177521210549482
-        0.9769084292515566        1.7239803798588471        0.4364823720693392       -0.0022886958879721
+        0.9728563829677563        1.8861229022332346       -0.3326380152396915        0.2661596488605359
-        3.5311698308557169        1.4270122359812125       -0.1692037288432153       -0.4582483197987693
-        3.4521781674886043        1.7715451890799916        0.4360554582285048       -0.2585405277905979
+        2.5254415546794977        2.2682134944683807        0.1931703483840293        0.9922877428602852
-        5.3017286342713943        0.7008089207975107        0.2374501117067483       -0.3833238389469020
-       -3.5900332728584892        2.7388458562721061       -0.2973172529810812       -0.0783579746842726
+       -4.2924065355230834        3.0717542116553722       -0.2312692239904715        0.1461231001422743
+       -0.2542542186513131        5.5826766041486930       -0.0302957291763746        0.1350284418706946
-       -1.3128384026489084       -1.4202917393384127        1.0109193162335368       -0.0592379851067173
-        3.0424573237972772        3.3627758691522338        0.0261627376568793       -0.7655821611688451
+        3.5232692999389466        3.4042901953253137       -0.0909553157763598        0.7726681480664960
+        2.9888965962507261        3.8439029941590115        0.0381957731179439        0.5550168842673102
-        3.0566463527795560        3.3860591360017551        0.0088920723543456       -0.8668986366157673
-        3.7065494387728846       -1.5817942956622104       -0.0791547182933248       -0.7518412872071155
+        3.7400751806533918       -1.1290422854432096        0.1438424814390351        0.4507368465310928
+        3.8473930948517947       -1.9813195196323674       -0.1521342452826761        0.4429843621865353
+        6.0495119401668909        0.8092001278242356        0.1261552717871334        0.5350971343173884
-        6.0760809149309614        0.5192298651730338        0.0811049941085755       -0.1386904592171717
