24
s                      x[A]                      y[A]                      z[A]                      q[e]
N       -0.5968896474913403        2.0584762395290794       -0.1339297675249433        0.6416239527834912
O       -0.8100488708949303        1.6155036584717037       -0.0557883533598419       -0.7665971342034914
O        0.1453774166752946        0.9655056944441922       -0.4789867131075123       -0.1076048843826278
O        1.3871721960536585        1.1481691629182269       -0.2341595108544689       -0.3314398045257989
O        1.7962173395659033        0.9477031261555181        0.3090313117285514       -0.3147480544185404
N        1.1568607346846000        1.0339414333117649       -0.0334223623772898        0.9536504204003450
N        1.9808002696835558        0.1066239737652080        0.0481460127900366        0.6948950475575850
O        2.1231428762774365        0.4573252868482034        0.0765135533079105       -0.9500429420452705
O        1.8514867596651630        0.1246361253505919       -0.0902408220114174       -0.8419751463855738
N        1.9862778624197703        0.4842043742699725       -0.0483697446221213        0.7708666607561452
N       -1.6926607993454250        1.7582496769233993       -0.0768622073862808        0.0963904304584464
N       -1.7930501892191835        1.6608938973267047       -0.1019783169454342        0.1892857432675318
N       -0.5660398747663418        3.2066558698599446       -0.0889517437932602        0.1415884267237478
N       -0.6976516198319328        2.6550001971510002        0.0279552183320994        0.9684007150812144
O       -0.7398704052963564        2.6131704278972898       -0.1208878868569286       -0.5579902689030265
O       -0.6605649003270880        2.6230212319409216        0.0363666258186495       -0.7755465088375634
O       -0.6322792973652543       -0.8517819923199182        0.5960580278258947       -0.0479825718859765
O        1.5948769950641424        1.9574001351118704       -0.0119594775967964       -0.5132055374646234
N        2.0120134664406550        2.0065584561347150        0.0261497283913449        0.4679562484508738
N        1.5954982852363340        2.3558022763784328       -0.0072611752349707        0.8033650128519244
O        1.7126651889051101        2.3029986444117716       -0.0025801922010408       -0.7506728250080014
N        2.2980468084947452       -1.0339981072537712       -0.0188903113476562        0.1187488955420545
N        3.3339857617218578        0.3217750784453378        0.0792875162317061        0.5952863135723051
O        3.2410298562430633        0.2217151690421844        0.0375516278203064       -0.4842521893851705

        RMSE         1.298047342E+00 kcal/mol
         MAE         7.811284619E-01 kcal/mol
     max. AE         1.261356965E+01 kcal/mol

Coordinates in bohr
s                   x[bohr]                   y[bohr]                   z[bohr]                      q[e]
+       -1.1279579608796995        3.8899563284722873       -0.2530905806683788        0.6416239527834912
-       -1.5307705142277650        3.0528594691866791       -0.1054247088403663       -0.7665971342034914
-        0.2747235023428727        1.8245413350694930       -0.9051537055064395       -0.1076048843826278
-        2.6213755393913067        2.1697252636116189       -0.4424973451861158       -0.3314398045257989
-        3.3943588335780426        1.7908993566741385        0.5839845433579458       -0.3147480544185404
+        2.1861499538498257        1.9538661387225551       -0.0631591113588834        0.9536504204003450
+        3.7431700189349271        0.2014901088242437        0.0909827782059588        0.6948950475575850
-        4.0121585613811490        0.8642195423895453        0.1445896606375686       -0.9500429420452705
-        3.4988029006785175        0.2355281422508503       -0.1705304389377652       -0.8419751463855738
+        3.7535211690331698        0.9150136561189273       -0.0914055700941460        0.7708666607561452
+       -3.1986653340613804        3.3226103495599335       -0.1452485213582125        0.0963904304584464
+       -3.3883737868245931        3.1386345893917453       -0.1927110897620058        0.1892857432675318
+       -1.0696603393968334        6.0597013726270346       -0.1680944341511550        0.1415884267237478
+       -1.3183704924643760        5.0172232356519295        0.0528277064250458        0.9684007150812144
-       -1.3981524343415965        4.9381764278713201       -0.2284449980449280       -0.5579902689030265
-       -1.2482867497085446        4.9567917496293372        0.0687229629042512       -0.7755465088375634
-       -1.1948347068172400       -1.6096346840814686        1.1263864274714623       -0.0479825718859765
-        3.0138807244643857        3.6989501732955841       -0.0226001372614937       -0.5132055374646234
+        3.8021544123058728        3.7918459368160966        0.0494158249147507        0.4679562484508738
+        3.0150547927342664        4.4518211080853476       -0.0137216325430516        0.8033650128519244
-        3.2364681516361529        4.3520367052388877       -0.0048758566110094       -0.7506728250080014
+        4.3426790915375024       -1.9539732369513969       -0.0356975148716984        0.1187488955420545
+        6.3003199958302121        0.6080667722593969        0.1498316908457166        0.5952863135723051
-        6.1246587927313456        0.4189809473493146        0.0709622921455020       -0.4842521893851705
