25
s                      x[A]                      y[A]                      z[A]                      q[e]
N       -0.7516604391353106        2.0830207569224686       -0.0605527026477186        0.8162629227974867
O       -0.5932857395620977        2.1060860610845307       -0.0154246585748873       -0.9925219714191210
O        0.0681446341466314        0.8508711481961571       -0.5593541367222377       -0.0419814555563969
O        1.3144626275347577        0.9622567550770439       -0.0766398536422418       -0.4680217277408212
N        1.3656292434698127        0.8936473829234299        0.3299488154611452        0.0178223217979924
N        0.9890818022365234        1.1823600715950608       -0.0003365877834513        0.8868314337534170
N        2.4654260192048905        0.1139088447084472        0.5048842452445585        0.5626178621233862
O        2.2893506585437287        0.1511710445425572        0.3521041215856737       -0.8573634519599737
O       -1.5785778279511320        1.6842476068618677       -0.1324407230732465       -0.2721307239709572
O       -1.6299660759977517        1.5182158660366942        0.0467538035242298       -0.4244507191001681
N       -1.8303591902392005        1.6259990973254286        0.0160016649235746        0.6476102424471203
N       -0.3173044649587197        2.9950667610861914       -0.0810848578279517        0.7362881358451350
N       -0.4454867215004804        2.9009184941457331        0.0929371759190518        0.9180102378722578
O       -0.3143876998620914        3.0620190829787171       -0.0370068219744418       -0.6499723870838674
O       -0.4470810228608624        2.7772713510797509        0.0604708208155419       -0.9102485430817788
O       -0.4717223142022531       -0.5850673732082635        0.5023925619048045       -0.0768914667154564
O        1.4788020077020800        1.8508232893232575        0.0044188417292900       -0.4530408825228057
N        2.0692937042473272        2.0944518237727214       -0.0289933139477559        0.4998844775236604
N        1.5038244789988253        2.2938539419863115        0.0308076961241476        0.6141001042455735
O        1.7822223868142866        2.1889824289147719       -0.0054502949662451       -0.7589687408686118
O        2.2219964654371234       -0.5531960227084549       -0.0474044616292356       -0.9491882833397884
N        2.1053445187346207       -0.9359724297554090        0.0370049359032124        0.7025410505194276
O        2.0243909382265928       -0.9738390283493095        0.0368418280504612       -0.5417784151360193
N        2.1527405591989957       -0.6241639871335110       -0.0321373934901314        0.8881453259406362
N        3.6607363683481813        0.4192312916215088       -0.3023188139261823        0.1064446536296730

        RMSE         1.321397015E+00 kcal/mol
         MAE         7.883928892E-01 kcal/mol
     max. AE         1.520981682E+01 kcal/mol

Coordinates in bohr
s                   x[bohr]                   y[bohr]                   z[bohr]                      q[e]
+       -1.4204323693071002        3.9363387442273292       -0.1144280241604733        0.8162629227974867
-       -1.1211475619120650        3.9799258520940088       -0.0291483802852316       -0.9925219714191210
-        0.1287746954566550        1.6079134381445774       -1.0570261255469224       -0.0419814555563969
-        2.4839743681903741        1.8184017294673644       -0.1448283336790087       -0.4680217277408212
+        2.5806652590741144        1.6887488064574214        0.6235128966407899        0.0178223217979924
+        1.8690937219012713        2.2343367169913746       -0.0006360587278979        0.8868314337534170
+        4.6589799588749745        0.2152565197662714        0.9540929485706996        0.5626178621233862
-        4.3262457497841673        0.2856718722848194        0.6653803574418272       -0.8573634519599737
-       -2.9830797625477268        3.1827667044266965       -0.2502766944660393       -0.2721307239709572
-       -3.0801894774229313        2.8690121861341233        0.0883518839842594       -0.4244507191001681
+       -3.4588775807668521        3.0726929741867082        0.0302387642569011        0.6476102424471203
+       -0.5996185371569106        5.6598559059149354       -0.1532281742165140        0.7362881358451350
+       -0.8418478961640133        5.4819414662109738        0.1756258093605023        0.9180102378722578
-       -0.5941066499519885        5.7863774577553029       -0.0699327583052696       -0.6499723870838674
-       -0.8448606890965802        5.2482822296209655        0.1142732899230087       -0.9102485430817788
-       -0.8914259811094239       -1.1056171003046409        0.9493843494671984       -0.0768914667154564
-        2.7945307883341091        3.4975491234399523        0.0083504006601026       -0.4530408825228057
+        3.9103983741615789        3.9579403298961067       -0.0547894228306751        0.4998844775236604
+        2.8418164060670872        4.3347557221559585        0.0582181082309676        0.6141001042455735
-        3.3679122057387643        4.1365772840883777       -0.0102995647891647       -0.7589687408686118
-        4.1989647714114842       -1.0453889766115292       -0.0895814496040297       -0.9491882833397884
+        3.9785245401422507       -1.7687315532170382        0.0699291941471928        0.7025410505194276
-        3.8255444441068764       -1.8402890538621566        0.0696209649765816       -0.5417784151360193
+        4.0680900760510363       -1.1794989930561193       -0.0607308720824197        0.8881453259406362
+        6.9177891536811691        0.7922323243865946       -0.5712997608937306        0.1064446536296730
