27
s                      x[A]                      y[A]                      z[A]                      q[e]
O       -0.9252098798044821        1.8101955276507022        0.2038299431546194       -0.3142915096987551
N       -0.1917342529012145        1.1971340874454566       -0.2690355792859010        0.1646079118139673
O        0.2730024759874102        1.1397591615561156        0.3036932643706623       -0.1202624220718767
O       -0.1261252265861974        0.7718503152219844        0.3275363644881303       -0.1646125569693932
N        0.1663826311966461        0.7526822109032896       -0.2996953288277533        0.2669325105448922
O        1.4098214331949355        1.0080348330040954       -0.3791701882569014       -0.4561773002476073
O        1.3840089500503685        0.9823972123104635        0.3098348867765821       -0.3771813620838556
N        1.4563387898510824        1.3106813389776559       -0.0142876195262437        1.0381165278146436
O        2.8049640951384567        0.3397966191852994        0.0056449391467545       -0.1794694145902548
N       -1.9427630246714476        1.7883830435314327        0.0673434530908302        0.6075099433746374
O       -2.0694325550238943        1.7782957749977821        0.0650840675940940       -0.6341927927341925
O       -2.0123319888712348        1.7025403634487606       -0.0550279919733790       -0.9546843895531765
N       -2.1110601215841149        1.6642633791140560       -0.0588868418261723        0.9796111537091581
O       -0.1334695678404839        2.9338131089345412        0.0603664030642938       -0.0225825732923117
N       -0.4944152241136248       -0.7538873825671346       -0.0470475239912307        0.9062916163050367
N       -0.7308631099819227       -0.9157349710685380       -0.0490312661394560        1.0160272007842333
O       -0.6345258972535465       -0.9748198271407476        0.0445888628806301       -1.0083394392148903
O       -0.6475012964227251       -0.7255087259917089        0.0442543858755572       -0.9726828477970114
O        1.7235500080378481        2.0348011616181898        0.0006279148086693       -0.4859947676008386
N        2.1025917714705709        2.0802642979541499        0.0000715323285647        0.8085908580122798
N        1.5018726526981925        2.4207105179114419        0.0001099693458856        0.5557172122350049
O        1.7605447284316174        2.2885568931224047        0.0003366632500485       -0.7854047673512889
O        2.1293906223923784       -0.8104277980723827       -0.0253638823215209       -0.9423909796283507
N        2.0776332789055263       -0.8899109083252049        0.0768179249077286        0.5343309975227313
N        1.9826753668119601       -0.9869811610714000       -0.1084404822538846        0.6694191052746267
N        3.3746532530807927        0.1479774237810014        0.0783134190942458        0.9315225761347958
O        3.2877055933292012        0.1977852177922139        0.0147597038126949       -1.0604104906922038

WARNING, SOLUTION IS NOT FEASIBLE!
        RMSE         1.234647697E+01 kcal/mol
         MAE         9.642287721E+00 kcal/mol
     max. AE         5.866360778E+01 kcal/mol

Coordinates in bohr
s                   x[bohr]                   y[bohr]                   z[bohr]                      q[e]
-       -1.7483932813982268        3.4207737807884504        0.3851827687298683       -0.3142915096987551
+       -0.3623252268525634        2.2622555607217953       -0.5084035628542481        0.1646079118139673
-        0.5158999111880824        2.1538326643225010        0.5738970958068116       -0.1202624220718767
-       -0.2383421357592255        1.4585857056178440        0.6189540250106975       -0.1646125569693932
+        0.3144176049947168        1.4223632381113052       -0.5663420925634801        0.2669325105448922
-        2.6641763945388677        1.9049097592993578       -0.7165278107438295       -0.4561773002476073
-        2.6153978707776395        1.8564616776800236        0.5855030801199753       -0.3771813620838556
+        2.7520814586992284        2.4768287684161239       -0.0269996878893441        1.0381165278146436
-        5.3006139315543184        0.6421225486167048        0.0106673889822417       -0.1794694145902548
+       -3.6712900432951057        3.3795541596871330        0.1272606826842855        0.6075099433746374
-       -3.9106607641015976        3.3604919848045847        0.1229910628836227       -0.6341927927341925
-       -3.8027563324644835        3.2173350044555891       -0.1039878340635780       -0.9546843895531765
+       -3.9893254641696814        3.1450019871545574       -0.1112800034446206        0.9796111537091581
-       -0.2522209293017284        5.5441032791642559        0.1140759689705134       -0.0225825732923117
+       -0.9343093658316040       -1.4246406824901348       -0.0889069352243326        0.9062916163050367
+       -1.3811311130661974       -1.7304882988235846       -0.0926556645880058        1.0160272007842333
-       -1.1990801653195964       -1.8421424949621548        0.0842607390899834       -1.0083394392148903
-       -1.2236001161178371       -1.3710127937541572        0.0836286691551324       -0.9726828477970114
-        3.2570374787221712        3.8452169152218301        0.0011865870185043       -0.4859947676008386
+        3.9733226017205934        3.9311297917011450        0.0001351765101036        0.8085908580122798
+        2.8381279889144255        4.5744799078678016        0.0002078119459195        0.5557172122350049
-        3.3269473683542845        4.3247457505300071        0.0006362013390982       -0.7854047673512889
-        4.0239650904397823       -1.5314865828146429       -0.0479307910660160       -0.9423909796283507
+        3.9261578862683835       -1.6816878927920460        0.1451648396015923        0.5343309975227313
+        3.7467134389662435       -1.8651240854113253       -0.2049228123724117        0.6694191052746267
+        6.3771704167080223        0.2796368036969028        0.1479909140363243        0.9315225761347958
-        6.2128631525280218        0.3737598932913130        0.0278917978988691       -1.0604104906922038
