28
s                      x[A]                      y[A]                      z[A]                      q[e]
O       -0.8311054992072044        1.7135184767081753        0.2015260839611300       -0.0805072522461379
O       -0.3026402109440862        0.9392140861984234        0.0735597964156126       -0.7934582685822470
N        0.1566549981038619        0.7945276816275952       -0.0244207372006664        0.9151583970663471
N        0.9165838245100623        0.9196480636664609        0.0269896410993070        0.6610956189001287
O        1.1085983993101054        1.1410461005816430       -0.2570456127779601       -0.8363902586677262
O        1.5599008283538705        0.9432454810423506        0.1525682588203046       -0.6512797964595873
N        1.1744733584890676        1.1308207747143839       -0.1018308798863262        0.5955230327630442
O        2.3919232534273034        0.3468451196802851       -0.0030008063496762       -0.1169014671081376
N       -1.6500031667855894        1.5082193057126492        0.0833565163042077        0.5331325785008454
O       -1.6421168568632176        1.4876778949095828        0.0050533897501232       -0.4438172743023062
O       -1.8794968967033945        1.5549830491075980        0.0123665315286434       -0.7948571976175910
N       -1.9440088197778953        1.5683547451733693        0.0177462470774076        0.8410865381526633
N       -0.6446514740727290        2.9947790336840261       -0.0910324368947026        0.7829027920843041
N       -0.2139065717223241        3.1251546066614275        0.0650714999807487        0.7929069839067865
O       -0.6334167427052378        2.9382732857731693       -0.0830274413851631       -0.6707021615747308
O       -0.2859599657854489        3.1071953961725516        0.0384766495651345       -0.8459817557781107
N       -0.4170530355343432       -0.6590193727337530        0.0206127382729154        0.5339383180219988
O       -0.1892335846546525       -0.5101575882461330        0.0629959770136233       -0.8033578043915756
O        1.5523186526699186        1.9313873582968351       -0.0269309511262482       -0.2044731986820717
N        1.8409908235583978        2.0635406513821182       -0.0590524576436192        0.9574154844407695
N        1.5545952531251883        2.2823253190548658       -0.0051625470346026        0.4003000892762604
O        1.7335450968145725        2.1834063345559032       -0.0202912941164744       -0.9776200277462107
O        1.9285357011963573       -0.5642172429706405       -0.0425936126873524       -0.9637476356547461
N        1.9961672579236704       -0.5133537873383084        0.0467001303003706        0.9556386515052415
O        2.1537574001240869       -0.8207150164986924        0.0405946575508758       -0.7544150918806207
N        2.0679008499394267       -0.9034202783605496       -0.0340776796179579        0.8862887624520371
N        3.2784273158573276        0.2309207222069459        0.0673783017419697        0.8998821867646281
O        3.1937104544103634        0.1922404899639619        0.0552746675461481       -0.8177602431432549

        RMSE         1.338125505E+00 kcal/mol
         MAE         8.242331819E-01 kcal/mol
     max. AE         1.605430662E+01 kcal/mol

Coordinates in bohr
s                   x[bohr]                   y[bohr]                   z[bohr]                      q[e]
-       -1.5705617748635246        3.2380806318901398        0.3808291058225552       -0.0805072522461379
-       -0.5719071132351078        1.7748573960871612        0.1390078690699423       -0.7934582685822470
+        0.2960350426004144        1.5014397173711065       -0.0461485050910391        0.9151583970663471
+        1.7320923993487178        1.7378829721372153        0.0510030299020907        0.6610956189001287
-        2.0949473578170359        2.1562646266209113       -0.4857458099008278       -0.8363902586677262
-        2.9477853484636163        1.7824756282457666        0.2883122246083414       -0.6512797964595873
+        2.2194329891909885        2.1369415611882321       -0.1924324740995487        0.5955230327630442
-        4.5200798620916611        0.6554422841473819       -0.0056707021564228       -0.1169014671081376
+       -3.1180540913628785        2.8501214249250602        0.1575209865872128        0.5331325785008454
-       -3.1031511254691151        2.8113037842767441        0.0095495226329286       -0.4438172743023062
-       -3.5517343884173176        2.9384920925427007        0.0233693577109754       -0.7948571976175910
+       -3.6736442548547275        2.9637609359398707        0.0335355467310069        0.8410865381526633
+       -1.2182147323701358        5.6593121799260535       -0.1720263742640106        0.7829027920843041
+       -0.4042248369907946        5.9056863063029823        0.1229673135363493        0.7929069839067865
-       -1.1969841669924872        5.5525317918603729       -0.1568991251154612       -0.6707021615747308
-       -0.5403860181797894        5.8717483170495575        0.0727103299033203       -0.8459817557781107
+       -0.7881160169507403       -1.2453661258378033        0.0389524300315526        0.5339383180219988
-       -0.3575996487359324       -0.9640581226092750        0.1190451435613848       -0.8033578043915756
-        2.9334571129858413        3.6497931493525084       -0.0508921219266991       -0.2044731986820717
+        3.4789684560064273        3.8995266798610531       -0.1115929719816391        0.9574154844407695
+        2.9377592643433936        4.3129697822118533       -0.0097558000051933        0.4003000892762604
-        3.2759254591098177        4.1260399929004050       -0.0383449886112505       -0.9776200277462107
-        3.6444042984288880       -1.0662160644754064       -0.0804902626729219       -0.9637476356547461
+        3.7722094180818750       -0.9700980635359234        0.0882504562908951        0.9556386515052415
-        4.0700116269126161       -1.5509266082331314        0.0767127849279040       -0.7544150918806207
+        3.9077662609869823       -1.7072169022863140       -0.0643974814690368        0.8862887624520371
+        6.1953297491901749        0.4363769216640554        0.1273265370907808        0.8998821867646281
-        6.0352380828470560        0.3632818762557123        0.1044539833379520       -0.8177602431432549
