29
s                      x[A]                      y[A]                      z[A]                      q[e]
N       -1.0784827478861378        1.8356340306282906        0.2245903234619819        0.3089573628299060
O       -0.9256424931994006        1.9383881647400720        0.0815434747602113       -0.9960176689513491
O       -0.4819012384074176        1.9593872852529794        0.3924962778101040       -0.0330302389266895
N       -0.7634685086544857        2.0596332011027423       -0.1190446064065672        0.3981495095429362
N       -0.2196804945843169        1.1514353902640855       -0.2676768279899041        0.1502210169859643
O        0.2404960998851693        1.1487161119534339        0.3084632342893889       -0.1200269869361146
O       -0.1674162482483842        0.7394508471773540        0.3190306032136019       -0.1486618076016406
N        0.1339465817806161        0.7936442547354107       -0.3161755140158539        0.2752495124244239
O        2.6247952294162560        0.3614486838033598       -0.0001265899401019       -0.1944981212644127
N       -1.9496087085885678        1.8046354962818068        0.0638207321277769        0.6262801725082894
O       -1.9706239512557573        1.6694056309747425        0.0646749476380664       -0.6208483228484457
O       -1.9226895433979696        1.8083509436129124       -0.0560655771037816       -1.0037979813567215
N       -1.9879324083223198        1.6732920266004057       -0.0556524126579216        0.9999541649646129
N       -0.4684718208111209        3.0120188716416463       -0.0918517175126842        0.5875689234915876
N       -0.6182713947491575        2.8639650130516525        0.0784494840679051        0.9985124439024463
O       -0.5771164812103228        2.8663132485531166       -0.0829468845955145       -0.6226175471207644
O       -0.4472667765875018        2.9859195758049215        0.0760658867213648       -0.9997190389616447
O       -0.6457399983599110       -0.9204051799114579        0.6143547033641215       -0.1051036853941003
O        1.6392810805902880        2.0207359406526528        0.0000886814767255       -0.4900632486180459
N        1.9691087776967366        2.0600629093266152        0.0000681871596308        0.7987645567032198
N        1.4518156824693633        2.2990022210349776        0.0001061591586150        0.5544978670030525
O        1.8011616246006446        2.2372321820801364        0.0000811027023275       -0.8610202178994327
O        2.0977469868703791       -0.8703310300522473       -0.0234441131988227       -0.9952902653591461
N        1.9978375361515850       -0.8476335669098812        0.0832566592193594        0.5332319342217121
N        2.1138453661726748       -0.9998520186382422       -0.1048923513583341        0.6493460267695652
N        3.4384397734256673        0.3792195046601780        0.0670729765123214        0.9269352543355144
O        3.4413089895702074        0.3794798814849309       -0.0643948442478522       -1.0043185590488304
O        3.4147890656796762        0.5223133438619865        0.0796464890924002       -0.5104590756115702
N        3.4414689725658270        0.5246986983914361       -0.0825749876555749        0.8978040202156778

WARNING, SOLUTION IS NOT FEASIBLE!
        RMSE         1.709571753E+01 kcal/mol
         MAE         1.400495945E+01 kcal/mol
     max. AE         6.194842093E+01 kcal/mol

Coordinates in bohr
s                   x[bohr]                   y[bohr]                   z[bohr]                      q[e]
+       -2.0380370245359831        3.4688455844577359        0.4244142017711315        0.3089573628299060
-       -1.7492108022328274        3.6630227561875666        0.1540948346149823       -0.9960176689513491
-       -0.9106613601089784        3.7027053428324450        0.7417104703227071       -0.0330302389266895
+       -1.4427463867687076        3.8921426689841887       -0.2249617028213343        0.3981495095429362
+       -0.4151359698694806        2.1758975387587727       -0.5058358950322031        0.1502210169859643
-        0.4544717630237199        2.1707588474927433        0.5829110325798772       -0.1200269869361146
-       -0.3163708581411049        1.3973595844029698        0.6028804657133138       -0.1486618076016406
+        0.2531223550066037        1.4997702824930133       -0.5974851290658167        0.2752495124244239
-        4.9601441190049727        0.6830390207955548       -0.0002392203170307       -0.1944981212644127
+       -3.6842265110399142        3.4102668442522837        0.1206037048477059        0.6262801725082894
-       -3.7239395641409381        3.1547194348393810        0.1222179382142711       -0.6208483228484457
-       -3.6333566613037260        3.4172880221416362       -0.1059485857918862       -1.0037979813567215
+       -3.7566478076509866        3.1620636581870616       -0.1051678181444343        0.9999541649646129
+       -0.8852834388275734        5.6918907521132276       -0.1735745902518917        0.5875689234915876
+       -1.1683636072807329        5.4121095075608778        0.1482480395718078        0.9985124439024463
-       -1.0905920919754388        5.4165470295367220       -0.1567468948454792       -0.6226175471207644
-       -0.8452117127667118        5.6425702309145160        0.1437436933934788       -0.9997190389616447
-       -1.2202717451538190       -1.7393137144853945        1.1609621332450746       -0.1051036853941003
-        3.0977922849602066        3.8186374997029171        0.0001675837034123       -0.4900632486180459
+        3.7210763010818542        3.8929546998411655        0.0001288550569752        0.7987645567032198
+        2.7435340245117423        4.3444845595753696        0.0002006117354914        0.5544978670030525
-        3.4037021781799033        4.2277561031918589        0.0001532618954335       -0.8610202178994327
-        3.9641672856893946       -1.6446872852863539       -0.0443029532000060       -0.9952902653591461
+        3.7753657864859482       -1.6017952962046087        0.1573322840451629        0.5332319342217121
+        3.9945888136344725       -1.8894464812124336       -0.1982178167225458        0.6493460267695652
+        6.4977094706557788        0.7166210052395149        0.1267495560275531        0.9269352543355144
-        6.5031315033637016        0.7171130461277144       -0.1216886195199540       -1.0043185590488304
-        6.4530161103426114        0.9870291715712339        0.1505100512389006       -0.5104590756115702
+        6.5034338274101531        0.9915368383440141       -0.1560441114820975        0.8978040202156778
