30
s                      x[A]                      y[A]                      z[A]                      q[e]
O       -0.8070895380330941        2.0523600205080319       -0.0740219058679062       -1.0101394804351702
N       -0.7206550612721309        2.1765996818809237       -0.1726944820122807        0.7058230627491603
O       -0.5619521978896620        1.8693543337797147        0.4584021018036132       -0.0472967996441528
N       -0.2196173802539789        1.1507983277066716       -0.2697514791835079        0.1470527803567484
O        0.2427826207608242        1.1691328941249934        0.3076602796587438       -0.1229311389051063
O       -0.1709493530211383        0.7342348357097477        0.3134187030984518       -0.1478113097529278
N        0.1352367910516651        0.7961663677210846       -0.3104450852714231        0.2728993940058420
O        1.4562603350180601        1.0588434223772858       -0.3698551677529617       -0.4571451155369513
O        1.4565331229839202        1.0003991618970178        0.2968644791039258       -0.3694862645661413
N        1.4473326578680634        1.3126526913834082       -0.0137631884593453        1.0117076387956454
N        2.5047062897784498        0.0553454611727381        0.5188241385327637        0.8083242138249578
O        2.5362199690045415        0.1146000936171575        0.4254214197632193       -1.0090846492999956
N       -2.2723380087312051        1.5814824555154978       -0.0236877878305853        0.0000055946494268
N       -0.4585068472043007        3.0756881077849632       -0.0902098795777335        0.5811995362992972
N       -0.6288285177598439        2.8132778859607930        0.0783717516388732        0.9854835445415157
O       -0.5856829509309149        2.8524158562236721       -0.0809686347215169       -0.6321991102035978
O       -0.4433282771601522        3.0166007457604955        0.0765061584916519       -0.9781201614441085
O       -0.6493644254032660       -0.9288126207048785        0.6049875348072078       -0.1045595058362048
O        1.6690801867880012        2.0384089273049755        0.0000891607902719       -0.5005614404106342
N        1.9695480572501183        2.0765439016588219        0.0000673477897306        0.8027438670878496
N        1.4623907985068532        2.2975051128566739        0.0001087887464161        0.5574964715875533
O        1.7807973400158084        2.2827136779361741        0.0000796092838506       -0.8573962310506669
O        2.1283397468560459       -0.8033019926303457       -0.0495852010667434       -1.0011957701537542
N        2.1133258307699156       -0.8504442227229817        0.0457602664091364        0.9923494751030764
O        2.1868586061794137       -0.9260202126314626        0.0535145008190466       -0.8306858585812660
N        2.1778844680602845       -0.9708749706980341       -0.0520680592111770        1.0085404322360390
N        3.4495446046540521        0.3739683543570943        0.0665892298809771        0.9110825291663408
O        3.4764695483348222        0.3755148679439480       -0.0631332570112031       -0.9836548540368819
O        3.4829835476840398        0.5135992311706129        0.0794507978407138       -0.5064409825615492
N        3.4483884970181098        0.5202419237846886       -0.0838129243480518        0.7740001320156564

WARNING, SOLUTION IS NOT FEASIBLE!
        RMSE         1.382514306E+01 kcal/mol
         MAE         1.150721632E+01 kcal/mol
     max. AE         5.014750286E+01 kcal/mol

Coordinates in bohr
s                   x[bohr]                   y[bohr]                   z[bohr]                      q[e]
-       -1.5251781856048274        3.8783983495991921       -0.1398811293747624       -1.0101394804351702
+       -1.3618406967293577        4.1131772835135791       -0.3263452743810139        0.7058230627491603
-       -1.0619357496105417        3.5325677222813399        0.8662544277430669       -0.0472967996441528
+       -0.4150167010705500        2.1746936650004765       -0.5097564175939684        0.1470527803567484
-        0.4587926612588496        2.2093409741601211        0.5813936682367898       -0.1229311389051063
-       -0.3230474585341581        1.3875027512619464        0.5922755114522548       -0.1478113097529278
+        0.2555604971734130        1.5045363852933977       -0.5866561881573914        0.2728993940058420
-        2.7519332005515973        2.0009240780355348       -0.6989249731383593       -0.4571451155369513
-        2.7524486950973941        1.8904804321229101        0.5609925618831182       -0.3694862645661413
+        2.7350623358015960        2.4805540845597585       -0.0260086568012244        1.0117076387956454
+        4.7332089123928824        0.1045877639036351        0.9804355291035149        0.8083242138249578
-        4.7927611353357253        0.2165627908882555        0.8039299712559167       -1.0090846492999956
+       -4.2940965009701770        2.9885687131408338       -0.0447634315177590        0.0000055946494268
+       -0.8664523678632676        5.8122081710411972       -0.1704719662124476        0.5811995362992972
+       -1.1883136784436990        5.3163247192728793        0.1481011465698710        0.9854835445415157
-       -1.1067803736093851        5.3902847641760330       -0.1530085443759022       -0.6321991102035978
-       -0.8377690275037486        5.7005492393391766        0.1445756864600919       -0.9781201614441085
-       -1.2271209196274628       -1.7552014750009612        1.1432607501015077       -0.1045595058362048
-        3.1541044344573175        3.8520346042946794        0.0001684894747432       -0.5005614404106342
+        3.7219064191302587        3.9240992616248072        0.0001272688777458        0.8027438670878496
+        2.7635180975675353        4.3416554351381924        0.0002055809362584        0.5574964715875533
-        3.3652192575736803        4.3137036741359145        0.0001504397435215       -0.8573962310506669
-        4.0219792234841707       -1.5180207621058961       -0.0937024498919044       -1.0011957701537542
+        3.9936070340107785       -1.6071066659242945        0.0864743709412553        0.9923494751030764
-        4.1325638407795298       -1.7499245885116881        0.1011277502885867       -0.8306858585812660
+        4.1156051775223448       -1.8346877966811783       -0.0983943717932462        1.0085404322360390
+        6.5186945603468578        0.7066977693230719        0.1258354073801995        0.9110825291663408
-        6.5695753298468897        0.7096202564515248       -0.1193045651593141       -0.9836548540368819
-        6.5818850045983215        0.9705618851581618        0.1501402483680653       -0.5064409825615492
+        6.5165098335433758        0.9831147549343664       -0.1583834727915339        0.7740001320156564
