3
s                      x[A]                      y[A]                      z[A]                      q[e]
N        2.1699768398640664        0.0863363309016796        0.3569265329057583        0.4242938593777097
N        2.1108505621079576        0.3838916064679613       -0.2617285764847200        0.3813407723363756
O        2.2322006565210208        0.2547998945371519        0.0526169830001646       -0.9999999996182714

        RMSE         1.248621889E-01 kcal/mol
         MAE         8.722431679E-02 kcal/mol
     max. AE         7.731711153E-01 kcal/mol

Coordinates in bohr
s                   x[bohr]                   y[bohr]                   z[bohr]                      q[e]
+        4.1006619259295443        0.1631520200810759        0.6744933941010947        0.4242938593777097
+        3.9889294541527498        0.7254499980864818       -0.4945953287620628        0.3813407723363756
-        4.2182478978918887        0.4815020174707553        0.0994316874181814       -0.9999999996182714
