3
s                      x[A]                      y[A]                      z[A]                      q[e]
N        0.0743162896353431        0.8546856848470044       -0.2029523968059722        0.7629892952336569
O       -0.0286752063911121        0.9648844194172438        0.0255319217101708       -0.9999999947184111
N       -0.2183004816119094        1.1574424510446870       -0.0797418207359730        0.3939436628282180

        RMSE         2.034805729E-02 kcal/mol
         MAE         1.454344699E-02 kcal/mol
     max. AE         1.254304647E-01 kcal/mol

Coordinates in bohr
s                   x[bohr]                   y[bohr]                   z[bohr]                      q[e]
+        0.1404374340709987        1.6151218677101999       -0.3835244464685295        0.7629892952336569
-       -0.0541882866701797        1.8233672954199742        0.0482483394888536       -0.9999999947184111
+       -0.4125281233020514        2.1872492384530884       -0.1506902019363429        0.3939436628282180
