4
s                      x[A]                      y[A]                      z[A]                      q[e]
N       -1.0800114469582112        1.8339206460156390        0.2251743783469102        0.3087277590869171
O       -0.9265230499923646        1.9414182396171198        0.0811948328489066       -0.9999989693642084
O       -0.4796695503893137        1.9508510425503109        0.3928942803174880       -0.0331977808542398
N       -0.7606473298434019        2.0528341939657109       -0.1190911791692128        0.3980413394088563

        RMSE         9.184141594E-03 kcal/mol
         MAE         6.223303844E-03 kcal/mol
     max. AE         6.094052631E-02 kcal/mol

Coordinates in bohr
s                   x[bohr]                   y[bohr]                   z[bohr]                      q[e]
+       -2.0409258471104432        3.4656077567922505        0.4255179055458816        0.3087277590869171
-       -1.7508748134094407        3.6687487678448174        0.1534359968867602       -0.9999989693642084
-       -0.9064440809572962        3.6865741819839637        0.7424625860589085       -0.0331977808542398
+       -1.4374151314648145        3.8792944075701667       -0.2250497125876406        0.3980413394088563
