3
s                      x[A]                      y[A]                      z[A]                      q[e]
O        1.7299375060523388        2.3398004692530012       -0.0004467806156428       -0.9999998921953066
N        2.1267694024062078        2.1209088507334677       -0.0004758858657163        0.3423670170943285
N        1.5529684639978973        2.4243797328122270       -0.0004426364443151        0.6576296000160288

        RMSE         2.593131938E-01 kcal/mol
         MAE         1.969685827E-01 kcal/mol
     max. AE         1.518609769E+00 kcal/mol

Coordinates in bohr
s                   x[bohr]                   y[bohr]                   z[bohr]                      q[e]
-        3.2691081005964642        4.4215820751058823       -0.0008442930017283       -0.9999998921953066
+        4.0190117025513441        4.0079368649457709       -0.0008992939531801        0.3423670170943285
+        2.9346850784289411        4.5814137191257345       -0.0008364616529020        0.6576296000160288
