2
s                      x[A]                      y[A]                      z[A]                      q[e]
N        2.1285728876249954        2.1507371158584130       -0.0017476046748872        0.9999967234936743
O        2.1025343866433750        2.1827438906489820       -0.0017835219878314       -0.9999999985786237

        RMSE         1.175933244E+00 kcal/mol
         MAE         8.515973832E-01 kcal/mol
     max. AE         8.398836379E+00 kcal/mol

Coordinates in bohr
s                   x[bohr]                   y[bohr]                   z[bohr]                      q[e]
+        4.0224197956861634        4.0643041168294625       -0.0033024942111066        0.9999967234936743
-        3.9732141601134363        4.1247881553428458       -0.0033703680957335       -0.9999999985786237
