3
s                      x[A]                      y[A]                      z[A]                      q[e]
O       -0.8052897501348895        2.0678514372952637       -0.0753181844948414       -0.9999999018810104
N       -0.7295569118484048        2.1276979809530614       -0.1751274411024159        0.7199252059504047
O       -0.5544326739610155        1.8916494811288456        0.4593577456956803       -0.0463529557920691

        RMSE         4.108302336E-02 kcal/mol
         MAE         2.746143697E-02 kcal/mol
     max. AE         3.080622437E-01 kcal/mol

Coordinates in bohr
s                   x[bohr]                   y[bohr]                   z[bohr]                      q[e]
-       -1.5217770793933072        3.9076728846223796       -0.1423307409619544       -0.9999999018810104
+       -1.3786627563282643        4.0207664616908723       -0.3309429007358125        0.7199252059504047
-       -1.0477259087915731        3.5746994446979246        0.8680603329725403       -0.0463529557920691
