3
s                      x[A]                      y[A]                      z[A]                      q[e]
N        3.4102220438660602        0.3335028450724454        0.2696814244728958        0.9911105696212115
O        3.4567922144073728        0.2203979837786336       -0.3017908555515923       -0.1017169569006061
O        3.4078493932724503        0.3571626082659125        0.2510173575425662       -0.9999989195876396

        RMSE         3.958156742E-02 kcal/mol
         MAE         2.641965851E-02 kcal/mol
     max. AE         2.783557414E-01 kcal/mol

Coordinates in bohr
s                   x[bohr]                   y[bohr]                   z[bohr]                      q[e]
+        6.4443856899058858        0.6302290392479146        0.5096240333771133        0.9911105696212115
-        6.5323905578448302        0.4164918279447146       -0.5703020641601136       -0.1017169569006061
-        6.4399020300925578        0.6749395118767548        0.4743540584915759       -0.9999989195876396
