1
s                      x[A]                      y[A]                      z[A]                      q[e]
N        1.9400199957022022       -1.2258674874888087       -0.0261712127481079        0.1838812535478022

        RMSE         8.365566472E-01 kcal/mol
         MAE         6.696818957E-01 kcal/mol
     max. AE         4.132863189E+00 kcal/mol

Coordinates in bohr
s                   x[bohr]                   y[bohr]                   z[bohr]                      q[e]
+        3.6661064697890349       -2.3165538174569491       -0.0494564244650145        0.1838812535478022
