1
s                      x[A]                      y[A]                      z[A]                      q[e]
N        1.5248378148771191        1.6619732948314092        0.1143455449424031        0.1694946883792111

        RMSE         2.832718855E+00 kcal/mol
         MAE         2.355188072E+00 kcal/mol
     max. AE         9.647842871E+00 kcal/mol

Coordinates in bohr
s                   x[bohr]                   y[bohr]                   z[bohr]                      q[e]
+        2.8815258558593193        3.1406743550561398        0.2160817636073713        0.1694946883792111
