3
s                      x[A]                      y[A]                      z[A]                      q[e]
N       -0.4885159955190534        3.1586483064633257       -0.0825580481357717        0.3961916254132768
N       -0.6893086457004153        2.9323223926919471        0.1668233580190037        0.5731218750776412
O       -0.4970535165100220        3.0214418684240032        0.0636950649817325       -0.9999999986336300

        RMSE         7.633159482E-02 kcal/mol
         MAE         5.142158083E-02 kcal/mol
     max. AE         5.290360477E-01 kcal/mol

Coordinates in bohr
s                   x[bohr]                   y[bohr]                   z[bohr]                      q[e]
+       -0.9231614394363946        5.9689802258568712       -0.1560121004289728        0.3961916254132768
+       -1.3026045562840285        5.5412862337349811        0.3152504579851161        0.5731218750776412
-       -0.9392950158996725        5.7096976353129527        0.1203662283587139       -0.9999999986336300
