1
s                      x[A]                      y[A]                      z[A]                      q[e]
N        1.0935819992952680       -0.6876979945520577       -0.0000096896194456        0.1569329633434638

        RMSE         1.923333073E+00 kcal/mol
         MAE         1.608879312E+00 kcal/mol
     max. AE         5.875676529E+00 kcal/mol

Coordinates in bohr
s                   x[bohr]                   y[bohr]                   z[bohr]                      q[e]
+        2.0665704743986724       -1.2995608667299787       -0.0000183107270120        0.1569329633434638
