4
s                      x[A]                      y[A]                      z[A]                      q[e]
N        1.1146748438163501       -1.3084817604638070       -0.0648820321001872        0.1184459048436446
N        0.8539970120870466       -0.9230528128062183        0.1616054837276916        0.9999999705725080
O        0.8655376992814676       -0.9177805907115253        0.2506626348016076       -0.8337296934629856
O        0.8086081395533778       -0.9821452950122037       -0.2067800349018158       -0.3345564323827238

        RMSE         5.086213010E-02 kcal/mol
         MAE         3.068890684E-02 kcal/mol
     max. AE         4.890792207E-01 kcal/mol

Coordinates in bohr
s                   x[bohr]                   y[bohr]                   z[bohr]                      q[e]
+        2.1064301737503808       -2.4726721674335082       -0.1226092711325171        0.1184459048436446
+        1.6138204648038166       -1.7443170155372449        0.3053901046174687        0.9999999705725080
-        1.6356292029008506       -1.7343539597056874        0.4736837296606925       -0.8337296934629856
-        1.5280479265718676       -1.8559856229800473       -0.3907576341770428       -0.3345564323827238
