3
s                      x[A]                      y[A]                      z[A]                      q[e]
N        1.7171460012348956        1.0821445916931993        0.1272618051982656        0.6527028290900512
O        1.8739135382012468        1.0356167319077434        0.1398764312095470       -0.9999999917318387
N        2.1752296801926274        0.9096092916793754        0.1188765698090575        0.3568445336329634

        RMSE         1.861926401E-01 kcal/mol
         MAE         1.315466201E-01 kcal/mol
     max. AE         1.509977190E+00 kcal/mol

Coordinates in bohr
s                   x[bohr]                   y[bohr]                   z[bohr]                      q[e]
+        3.2449356597590224        2.0449569064455329        0.2404899580560873        0.6527028290900512
-        3.5411833699880120        1.9570319942473184        0.2643281463924857       -0.9999999917318387
+        4.1105883555312843        1.7189124424457056        0.2246441596729872        0.3568445336329634
