4
s                      x[A]                      y[A]                      z[A]                      q[e]
O        0.1666931181266998        1.1090914192447907       -0.3831391564952450       -0.4672537550438162
N        0.5486065276857369        0.7438851415095609        0.1408288586810863        0.8578676551353487
O        0.4679138922611512        0.9258111637928381        0.2212919857820143       -0.9999999781283655
N       -0.0149664283498254        0.9741382772667689       -0.1037225745978124        0.8221827779981076

        RMSE         1.261828368E-01 kcal/mol
         MAE         8.581409600E-02 kcal/mol
     max. AE         1.147123866E+00 kcal/mol

Coordinates in bohr
s                   x[bohr]                   y[bohr]                   z[bohr]                      q[e]
-        0.3150043402580525        2.0958790304679820       -0.7240280737149398       -0.4672537550438162
+        1.0367160879644404        1.4057391862505106        0.2661279734680572        0.8578676551353487
-        0.8842291066705568        1.7495295434598428        0.4181812468867147       -0.9999999781283655
+       -0.0282824506574578        1.8408545523594948       -0.1960072590172346        0.8221827779981076
