8
s                      x[A]                      y[A]                      z[A]                      q[e]
O       -0.1398930236243837        0.3012653186836535        0.4510256288650491       -0.7749403400018419
N       -0.3650515119377712        0.0241900214784490        0.2022155493561868        0.9237243916689143
O       -0.0059797057953811        0.3724795931567504       -0.4370727318242803       -0.4091142437107885
N        0.4950595544400079       -0.6119010679314911        0.0134188287414143        0.9679453978540291
O        0.8009629260505620       -0.8238244884283821        0.0496331276788190       -0.6834405224139856
O       -0.2191878697446868        0.1007101799540260        0.2630756534562964       -0.0545997499384402
O       -0.0624885456821606        0.3928088664476371       -0.4108976597900700       -0.0471954065329490
O       -1.1301095371468848       -0.6063278190200065       -0.0000207308788090       -0.2488071786476130

        RMSE         4.125210988E+01 kcal/mol
         MAE         4.020550252E+01 kcal/mol
     max. AE         8.901052488E+01 kcal/mol

Coordinates in bohr
s                   x[bohr]                   y[bohr]                   z[bohr]                      q[e]
-       -0.2643595015122870        0.5693089434108783        0.8523149141173296       -0.7749403400018419
+       -0.6898473792466866        0.0457125155632111        0.3821320065921931        0.9237243916689143
-       -0.0113000062640832        0.7038844183882140       -0.8259477600535656       -0.4091142437107885
+        0.9355269736827948       -1.1563254342656841        0.0253579112456950        0.9679453978540291
-        1.5136005668808934       -1.5568026585750439        0.0937930180628484       -0.6834405224139856
-       -0.4142050438399822        0.1903146581586821        0.4971409353082533       -0.0545997499384402
-       -0.1180862373174439        0.7423011772375748       -0.7764840425947779       -0.0471954065329490
-       -2.1355975169755221       -1.1457935201939722       -0.0000391756832891       -0.2488071786476130
