6
s                      x[A]                      y[A]                      z[A]                      q[e]
O       -1.0140181945882150       -1.6488565403089441        0.0000558496458979       -0.9990470106441075
N       -1.7647746826387734       -0.7870526165887775       -0.0053081650844933        0.2084421263914975
N       -0.8987015189884090       -2.1909356353640161       -0.0425779882632261        0.6465617384287685
N        1.0765148661384458       -1.4411199352295734       -0.0707483367225993        0.0851156877301387
N       -1.6393986105756240       -1.6640239005329103       -0.0172777237447616        0.1857794678334009
O       -0.8585017875446013       -1.9375559969129748       -0.2074768158286079       -0.1739273179896303

        RMSE         4.438902478E-01 kcal/mol
         MAE         2.923550892E-01 kcal/mol
     max. AE         3.962342510E+00 kcal/mol

Coordinates in bohr
s                   x[bohr]                   y[bohr]                   z[bohr]                      q[e]
-       -1.9162166740029296       -3.1158872813538201        0.0001055405349508       -0.9990470106441075
+       -3.3349408233290374       -1.4873138916777560       -0.0100309782384100        0.2084421263914975
+       -1.6982997394210309       -4.1402683093439272       -0.0804607367904551        0.6465617384287685
+        2.0343182669855580       -2.7233219915214182       -0.1336949802373833        0.0851156877301387
+       -3.0980143844440207       -3.1445494382232790       -0.0326501659489190        0.1857794678334009
-       -1.6223332566752788       -3.6614501869039353       -0.3920743592981225       -0.1739273179896303
