3
s                      x[A]                      y[A]                      z[A]                      q[e]
O        0.9710500929125458       -1.0420871417350996        0.3625837940890846       -0.1327998533679287
N        1.0458788150694764       -1.1949637145752137        0.0071607584414531        0.2571407526306314
O        0.8418503871057362       -1.0507367694577199       -0.3428615479991538       -0.1741811496922596

        RMSE         8.229554816E-02 kcal/mol
         MAE         5.566777838E-02 kcal/mol
     max. AE         4.904233313E-01 kcal/mol

Coordinates in bohr
s                   x[bohr]                   y[bohr]                   z[bohr]                      q[e]
-        1.8350187297050893       -1.9692592967404923        0.6851840683577648       -0.1327998533679287
+        1.9764245208996660       -2.2581541504069125        0.0135318723049065        0.2571407526306314
-        1.5908666702404957       -1.9856047242234123       -0.6479144246689141       -0.1741811496922596
