2
s                      x[A]                      y[A]                      z[A]                      q[e]
N       -2.2458254416535368       -0.9675914793501450        0.0106996516010042        0.9145006905077172
O       -2.1657484254415511       -1.0080444309654732        0.0138534544880956       -0.9999999588214774

        RMSE         4.002791388E-01 kcal/mol
         MAE         2.963205610E-01 kcal/mol
     max. AE         2.488932604E+00 kcal/mol

Coordinates in bohr
s                   x[bohr]                   y[bohr]                   z[bohr]                      q[e]
+       -4.2439950103105542       -1.8284828972983576        0.0202194111637143        0.9145006905077172
-       -4.0926713807260544       -1.9049278968177248        0.0261792348739953       -0.9999999588214774
