3
s                      x[A]                      y[A]                      z[A]                      q[e]
O        0.0000852160310553       -0.0501173223371635       -0.0000084397577782       -0.9999999998856828
N        0.7833087761498227       -0.4631097680770390       -0.0000089938445213        0.4999972907234321
N       -0.7841409228824828       -0.4561629557650852       -0.0000072081213397        0.5000027091622506

        RMSE         8.268735071E-01 kcal/mol
         MAE         5.363839645E-01 kcal/mol
     max. AE         6.274558460E+00 kcal/mol

Coordinates in bohr
s                   x[bohr]                   y[bohr]                   z[bohr]                      q[e]
-        0.0001610349601930       -0.0947080133585290       -0.0000159488307660       -0.9999999998856828
+        1.4802390585907177       -0.8751506276898963       -0.0000169959029602        0.4999972907234321
+       -1.4818115880116398       -0.8620230549753451       -0.0000136213752112        0.5000027091622506
