3
s                      x[A]                      y[A]                      z[A]                      q[e]
O        0.2211592164209044        0.2397079214554826        0.4392051368786339       -0.2793629317513914
O        0.2211343598673819        0.2397368710336678       -0.4392096061351027       -0.2793573045721868
N        0.8515650246256836       -0.3399417005611756        0.0000062022456572        0.3892255479443672

        RMSE         8.528004896E-01 kcal/mol
         MAE         6.354437579E-01 kcal/mol
     max. AE         3.921449978E+00 kcal/mol

Coordinates in bohr
s                   x[bohr]                   y[bohr]                   z[bohr]                      q[e]
-        0.4179303491563649        0.4529823216536185        0.8299774215948360       -0.2793629317513914
-        0.4178833770777847        0.4530370284278361       -0.8299858672655464       -0.2793573045721868
+        1.6092246745612930       -0.6423967126830156        0.0000117205456549        0.3892255479443672
