4
s                      x[A]                      y[A]                      z[A]                      q[e]
O        0.1454415445361174        0.4180393559243071       -0.3812126185868883       -0.2145328631325276
O        0.2051898575889496        0.2080276259359837        0.4543564729430610       -0.2718095346416962
O        0.6919829717327576       -0.3222869972230964       -0.3645212751950483       -0.6831522377039739
N        0.7661359781427408       -0.3428153412438964       -0.2076896440735718        0.9999999470989869

        RMSE         7.308061403E-01 kcal/mol
         MAE         5.151344884E-01 kcal/mol
     max. AE         3.884640938E+00 kcal/mol

Coordinates in bohr
s                   x[bohr]                   y[bohr]                   z[bohr]                      q[e]
-        0.2748446864368392        0.7899798923597268       -0.7203874446978333       -0.2145328631325276
-        0.3877526345648094        0.3931152395481969        0.8586092971913751       -0.2718095346416962
-        1.3076583000553379       -0.6090341585478398       -0.6888453770212855       -0.6831522377039739
+        1.4477871735495249       -0.6478271065563316       -0.3924765463928662        0.9999999470989869
