4
s                      x[A]                      y[A]                      z[A]                      q[e]
N       -0.5008194706559296        0.0669001988855214        0.0575812602972343        0.2453579208211908
O        0.0285636713801120        0.2172104764363967        0.1712486302424027       -0.6580769578286003
N        0.5021835219531685        0.1263619181580045        0.0666850147977554        0.2561280916093148
O        0.0191170307686963        0.2797753051102300       -0.4796461905290641       -0.1698367063245801

        RMSE         1.856713196E-01 kcal/mol
         MAE         1.194970489E-01 kcal/mol
     max. AE         2.009895136E+00 kcal/mol

Coordinates in bohr
s                   x[bohr]                   y[bohr]                   z[bohr]                      q[e]
+       -0.9464116378364702        0.1264230536322944        0.1088128119204712        0.2453579208211908
-        0.0539775160459897        0.4104683120450008        0.3236130105179360       -0.6580769578286003
+        0.9489893212093272        0.2387894180061451        0.1260164146398603        0.2561280916093148
-        0.0361259524847865        0.5286987033247366       -0.9063999372190955       -0.1698367063245801
