4
s                      x[A]                      y[A]                      z[A]                      q[e]
N        0.7550780524871975       -0.4677788778772214        0.0121353786263784        0.6634046035449327
O        0.5702896731076726       -0.2157547400913351        0.1240765760375941       -0.9999999976594685
O        0.5476143110892467       -0.2645497815720994       -0.2699614097755877       -0.2141101826003615
N        0.5684659160045663       -0.1303358413580203        0.0822905127132838        0.7076385400583611

        RMSE         4.309277672E-02 kcal/mol
         MAE         2.844555078E-02 kcal/mol
     max. AE         4.960755246E-01 kcal/mol

Coordinates in bohr
s                   x[bohr]                   y[bohr]                   z[bohr]                      q[e]
+        1.4268907225448744       -0.8839739664619322        0.0229325420325897        0.6634046035449327
-        1.0776912943503736       -0.4077173690419595        0.2344707472955963       -0.9999999976594685
-        1.0348410703399400       -0.4999266337209581       -0.5101531289183545       -0.2141101826003615
+        1.0742448929061443       -0.2462990444977779        0.1555065317516120        0.7076385400583611
