2
s                      x[A]                      y[A]                      z[A]                      q[e]
O       -0.2163203453594819        0.2232310886878797       -0.0000095387962044       -0.5327897541375288
N       -0.9144548081048230       -0.4046852811703792       -0.0000090218943080        0.3758567907940650

        RMSE         1.507926374E+00 kcal/mol
         MAE         1.113188959E+00 kcal/mol
     max. AE         8.153644931E+00 kcal/mol

Coordinates in bohr
s                   x[bohr]                   y[bohr]                   z[bohr]                      q[e]
-       -0.4087862080938729        0.4218456203078798       -0.0000180257123929       -0.5327897541375288
+       -1.7280691414262090       -0.7647443484159124       -0.0000170489093749        0.3758567907940650
