4
s                      x[A]                      y[A]                      z[A]                      q[e]
N       -0.5008142250866866        0.0668675012831434        0.0575980596367472        0.2453789447931314
O        0.0285363144774628        0.2172056935561575        0.1712478060307049       -0.6580740521524205
O        0.0191376703064422        0.2797800084443987       -0.4796437788251305       -0.1698382895569851
N        0.5021861197759219        0.1263849955771953        0.0666624302129059        0.2561057451935994

        RMSE         1.856886813E-01 kcal/mol
         MAE         1.195049506E-01 kcal/mol
     max. AE         2.010055677E+00 kcal/mol

Coordinates in bohr
s                   x[bohr]                   y[bohr]                   z[bohr]                      q[e]
+       -0.9464017251472290        0.1263612641188409        0.1088445580712393        0.2453789447931314
-        0.0539258189923420        0.4104592737112580        0.3236114529835578       -0.6580740521524205
-        0.0361649555584824        0.5287075913381920       -0.9063953797591654       -0.1698382895569851
+        0.9489942303828536        0.2388330280080980        0.1259737359598376        0.2561057451935994
