10
s                      x[A]                      y[A]                      z[A]                      q[e]
O       -0.1113484479185095        0.1408731598388368        0.2590171871725443       -0.6071298143454911 
N       -0.4826378855838787        0.0337077178755667        0.1293281370657933        0.3331909654443749 
O       -0.0144680790081786        0.2381567502958042       -0.4919091052019275       -0.2121287476573094 
N        0.9993069862901940       -0.4686742163497366        0.1628809568884665        0.9505322553902680 
O        1.0416754819913512       -0.4717548768277230        0.2287234938269815       -0.6339593472110534 
O        0.0609359378327855        0.2728077547654808        0.3692207340209274       -0.5299480202278303 
N        0.0787320466796091        0.0804516186416355       -0.0000147103619785        0.9999999968308007 
O        0.0609743258033485        0.2729000273796364       -0.3692070072883424       -0.5298967086067203 
O       -0.3845758366177371       -0.3164382705690855       -0.0000914432853403       -0.9999999810143808 
N       -0.6805402398322670       -0.4280164177029750       -0.0000540429294036        0.9029117496746670 

        RMSE         2.657748426e-01 kcal/mol
         MAE         1.775292948e-01 kcal/mol
     max. AE         2.068180662e+00 kcal/mol

Coordinates in bohr
s                   x[bohr]                   y[bohr]                   z[bohr]                      q[e]
-       -0.2104180558218810        0.2662116712436517        0.4894715100940275       -0.6071298143454911 
+       -0.9120533554708089        0.0636983504858552        0.2443947416704525        0.3331909654443749 
-       -0.0273407049068732        0.4500510003945019       -0.9295734201290538       -0.2121287476573094 
+        1.8884163825821234       -0.8856658468228362        0.3078003772801713        0.9505322553902680 
-        1.9684812300064876       -0.8914874509901400        0.4322247304882386       -0.6339593472110534 
-        0.1151522253623287        0.5155319040719446        0.6977260166093147       -0.5299480202278303 
+        0.1487819947461257        0.1520315145720348       -0.0000277985533325        0.9999999968308007 
-        0.1152247681079512        0.5157062740289505       -0.6977000768460102       -0.5298967086067203 
-       -0.7267429530441253       -0.5979816236820394       -0.0001728027527905       -0.9999999810143808 
+       -1.2860345774991118       -0.8088337480807849       -0.0001021263281941        0.9029117496746670 

total molecule built from fragment files:  /home/boittier/MDCM-1/examples/water/4-fit-frags/frag1/fit1/5charges.xyz /home/boittier/MDCM-1/examples/water/4-fit-frags/frag2/fit1/5charges.xyz
