4
s                      x[A]                      y[A]                      z[A]                      q[e]
O        0.2323466934071556        0.2290204435239039       -0.0000078567436279       -0.5205458180956890 
N        0.9504733429235097       -0.4095605772204473       -0.0000089379513520        0.3510511297164779 
O       -0.2163203453594819        0.2232310886878797       -0.0000095387962044       -0.5327897541375288 
N       -0.9144548081048230       -0.4046852811703792       -0.0000090218943080        0.3758567907940650 

        RMSE         1.534632741e+00 kcal/mol
         MAE         1.133343465e+00 kcal/mol
     max. AE         8.447783848e+00 kcal/mol

Coordinates in bohr
s                   x[bohr]                   y[bohr]                   z[bohr]                      q[e]
-        0.4390715848967782        0.4327858840478198       -0.0000148470926194       -0.5205458180956890 
+        1.7961341775940762       -0.7739572666794964       -0.0000168902789547        0.3510511297164779 
-       -0.4087861784887404        0.4218455897569577       -0.0000180257110874       -0.5327897541375288 
+       -1.7280690162759100       -0.7647442930315638       -0.0000170489081402        0.3758567907940650 

total molecule built from fragment files:  /home/boittier/MDCM-1/examples/water/4-fit-frags/frag1/fit1/2charges.xyz /home/boittier/MDCM-1/examples/water/4-fit-frags/frag2/fit1/2charges.xyz
