9
s                      x[A]                      y[A]                      z[A]                      q[e]
O       -0.1113484479185095        0.1408731598388368        0.2590171871725443       -0.6071298143454911 
N       -0.4826378855838787        0.0337077178755667        0.1293281370657933        0.3331909654443749 
O       -0.0144680790081786        0.2381567502958042       -0.4919091052019275       -0.2121287476573094 
N        0.9993069862901940       -0.4686742163497366        0.1628809568884665        0.9505322553902680 
O        1.0416754819913512       -0.4717548768277230        0.2287234938269815       -0.6339593472110534 
O       -0.1203771738630011        0.4199027118778284       -0.3884104738982079       -0.2137242830542715 
O       -0.1822052641957263        0.2173251481889817        0.4621437782440597       -0.2701778445934974 
O       -0.6726052492621658       -0.3149470406297654       -0.3607004412622361       -0.6730288486823113 
N       -0.7495540620204627       -0.3403977034821128       -0.2013404237740204        0.9999980129866164 

        RMSE         4.536262422e-01 kcal/mol
         MAE         3.132875391e-01 kcal/mol
     max. AE         3.598904615e+00 kcal/mol

Coordinates in bohr
s                   x[bohr]                   y[bohr]                   z[bohr]                      q[e]
-       -0.2104180558218810        0.2662116712436517        0.4894715100940275       -0.6071298143454911 
+       -0.9120533554708089        0.0636983504858552        0.2443947416704525        0.3331909654443749 
-       -0.0273407049068732        0.4500510003945019       -0.9295734201290538       -0.2121287476573094 
+        1.8884163825821234       -0.8856658468228362        0.3078003772801713        0.9505322553902680 
-        1.9684812300064876       -0.8914874509901400        0.4322247304882386       -0.6339593472110534 
-       -0.2274798738831338        0.7935010673191503       -0.7339893667698854       -0.2137242830542715 
-       -0.3443180230103930        0.4106849805090649        0.8733251082175949       -0.2701778445934974 
-       -1.2710396195994957       -0.5951636077107278       -0.6816249979527353       -0.6730288486823113 
+       -1.4164517908607646       -0.6432583867299052       -0.3804782313615036        0.9999980129866164 

total molecule built from fragment files:  /home/boittier/MDCM-1/examples/water/4-fit-frags/frag1/fit1/5charges.xyz /home/boittier/MDCM-1/examples/water/4-fit-frags/frag2/fit1/4charges.xyz
