3
s                      x[A]                      y[A]                      z[A]                      q[e]
N       -0.8091634207339374       -1.4755498027032157        0.0713575853737478        0.9999999972100662
O       -1.1229573349790269       -1.2595272930156838        0.0979167675917190       -0.5235757697994093
O       -0.4288296324444504       -1.4615874926872949        0.0625205407453234       -0.6733694609675052

        RMSE         1.895616620E+00 kcal/mol
         MAE         1.452797817E+00 kcal/mol
     max. AE         8.702210875E+00 kcal/mol

Coordinates in bohr
s                   x[bohr]                   y[bohr]                   z[bohr]                      q[e]
+       -1.5290972559257461       -2.7883850115824105        0.1348462933303586        0.9999999972100662
-       -2.1220818136843649       -2.3801616313389147        0.1850358738384537       -0.5235757697994093
-       -0.8103705598007558       -2.7620000695735838        0.1181466992241882       -0.6733694609675052
