2
s                      x[A]                      y[A]                      z[A]                      q[e]
O       -0.3292603826551921        1.1711432109069211       -0.3806643724450692       -0.2798941342030977
N       -0.1033314182903318        0.4626491748158196       -0.0696477445518178        0.3333316647870703

        RMSE         5.659652280E-01 kcal/mol
         MAE         4.456838496E-01 kcal/mol
     max. AE         2.578463262E+00 kcal/mol

Coordinates in bohr
s                   x[bohr]                   y[bohr]                   z[bohr]                      q[e]
-       -0.6222119471817581        2.2131399223033759       -0.7193514096404563       -0.2798941342030977
+       -0.1952680807238509        0.8742802325709601       -0.1316151624587832        0.3333316647870703
