2
s                      x[A]                      y[A]                      z[A]                      q[e]
N       -0.5579513686341301        2.1012133828648358        0.1758251602233462        0.9014061072819027
O       -0.5173822964592341        1.8947971746821213        0.1632983608351802       -0.9999999655967492

        RMSE         9.009699588E-01 kcal/mol
         MAE         6.891288339E-01 kcal/mol
     max. AE         5.126061564E+00 kcal/mol

Coordinates in bohr
s                   x[bohr]                   y[bohr]                   z[bohr]                      q[e]
+       -1.0543752780428670        3.9707178247613024        0.3322613987868658        0.9014061072819027
-       -0.9777108424683817        3.5806477234404848        0.3085891787146794       -0.9999999655967492
