3
s                      x[A]                      y[A]                      z[A]                      q[e]
N        2.7716596195791516        0.4668245488307332        0.0446461031695231        0.5181550874207048
N        2.2583585948480689       -0.2302360558213719        0.0255564594052456        0.4568141144650139
O        2.3345929224989486        0.2619366660574000        0.0055300258377532       -0.9999999996971849

        RMSE         4.159810828E-01 kcal/mol
         MAE         2.875686700E-01 kcal/mol
     max. AE         3.084884665E+00 kcal/mol

Coordinates in bohr
s                   x[bohr]                   y[bohr]                   z[bohr]                      q[e]
+        5.2376775939952278        0.8821705459305000        0.0843689075593333        0.5181550874207048
+        4.2676792373366261       -0.4350830897080135        0.0482947090122951        0.4568141144650139
-        4.4117412379552059        0.4949885610639915        0.0104502343000590       -0.9999999996971849
