3
s                      x[A]                      y[A]                      z[A]                      q[e]
O        1.5251017942711194        1.9946746271845159       -0.3020329036007475       -0.4092843486430791
O        1.4630354400611241        2.0347750242644000        0.2715716334970284       -0.5185552021817147
N        1.5190654967650834        1.9793961089871861        0.0322717407283094        0.9999999986686016

        RMSE         2.366414768E-01 kcal/mol
         MAE         1.577454552E-01 kcal/mol
     max. AE         1.614946074E+00 kcal/mol

Coordinates in bohr
s                   x[bohr]                   y[bohr]                   z[bohr]                      q[e]
-        2.8820247046167440        3.7693887547784333       -0.5707594686822184       -0.4092843486430791
-        2.7647362935541966        3.8451675227815230        0.5131960107525928       -0.5185552021817147
+        2.8706177555185519        3.7405165397826563        0.0609847515682876        0.9999999986686016
