1
s                      x[A]                      y[A]                      z[A]                      q[e]
O       -0.7217129616371930        1.3661743436794418        0.0017635296356101       -0.0985938583148464

        RMSE         3.088837550E+00 kcal/mol
         MAE         2.534725826E+00 kcal/mol
     max. AE         1.080390601E+01 kcal/mol

Coordinates in bohr
s                   x[bohr]                   y[bohr]                   z[bohr]                      q[e]
-       -1.3638398386873469        2.5816953491812429        0.0033325880254316       -0.0985938583148464
