1
s                      x[A]                      y[A]                      z[A]                      q[e]
N        1.7758893985522552       -0.7159358003310670       -0.0253482916558838        0.1217229047763901

        RMSE         2.343515838E+00 kcal/mol
         MAE         1.931444658E+00 kcal/mol
     max. AE         8.160700690E+00 kcal/mol

Coordinates in bohr
s                   x[bohr]                   y[bohr]                   z[bohr]                      q[e]
+        3.3559445923677860       -1.3529225860361764       -0.0479013289778484        0.1217229047763901
