1
s                      x[A]                      y[A]                      z[A]                      q[e]
O       -0.6443742125153167       -0.9188250080433019        0.6158033517036150       -0.1053253406808796

        RMSE         2.509071242E+00 kcal/mol
         MAE         2.113513296E+00 kcal/mol
     max. AE         8.724066767E+00 kcal/mol

Coordinates in bohr
s                   x[bohr]                   y[bohr]                   z[bohr]                      q[e]
-       -1.2176907839615085       -1.7363276224234268        1.1636996818588166       -0.1053253406808796
