3
s                      x[A]                      y[A]                      z[A]                      q[e]
O       -1.8487323839431808        1.8216956422078674       -0.1592232920346940       -0.4311443040228589
O       -1.8897315299968644        1.5862142660356455        0.0216151056482773       -0.5688501343032976
N       -1.9350609396731868        1.6511417258902081       -0.0563693388371302        0.9999999901207255

        RMSE         3.416774990E-02 kcal/mol
         MAE         2.297819751E-02 kcal/mol
     max. AE         2.459007172E-01 kcal/mol

Coordinates in bohr
s                   x[bohr]                   y[bohr]                   z[bohr]                      q[e]
-       -3.4935978849173610        3.4425058477128831       -0.3008884147393626       -0.4311443040228589
-       -3.5710750423364681        2.9975105391014729        0.0408466298480807       -0.5688501343032976
+       -3.6567352120533956        3.1202056562482543       -0.1065226122753096        0.9999999901207255
