4
s                      x[A]                      y[A]                      z[A]                      q[e]
O        2.1259709095269756       -0.8051918888900310       -0.0504649019300454       -0.9999999816755206
N        2.0938027148506970       -0.8428733985957096        0.0449724083481540        0.9999998713979553
O        2.1868747053767366       -0.9200750260832813        0.0530186630078848       -0.8161185619324607
N        2.1514115607313262       -0.9529803789048210       -0.0521667750122236        0.9999999257578281

        RMSE         4.125518385E-03 kcal/mol
         MAE         2.848015202E-03 kcal/mol
     max. AE         3.263633768E-02 kcal/mol

Coordinates in bohr
s                   x[bohr]                   y[bohr]                   z[bohr]                      q[e]
-        4.0175027696964669       -1.5215921484422283       -0.0953648435958740       -0.9999999816755206
+        3.9567136918078898       -1.5927998817797420        0.0849855349802643        0.9999998713979553
-        4.1325942638533100       -1.7386898141708693        0.1001907526228444       -0.8161185619324607
+        4.0655786329259884       -1.8008719190651403       -0.0985809176214796        0.9999999257578281
