3
s                      x[A]                      y[A]                      z[A]                      q[e]
O        1.4583469690302366        1.0648836985626637       -0.3624464562574586       -0.4595934164450826
O        1.4627529118907845        1.0186950157076404        0.3030922556188365       -0.3709118944892252
N        1.4577022491508809        1.2834346218379027       -0.0136325329347127        0.9999999993135189

        RMSE         2.955132303E-02 kcal/mol
         MAE         1.989209797E-02 kcal/mol
     max. AE         2.143722781E-01 kcal/mol

Coordinates in bohr
s                   x[bohr]                   y[bohr]                   z[bohr]                      q[e]
-        2.7558763673586766        2.0123385457480243       -0.6849245374693275       -0.4595934164450826
-        2.7642023926895281        1.9250545850564007        0.5727613538668576       -0.3709118944892252
+        2.7546580233590556        2.4253399352041729       -0.0257617536428908        0.9999999993135189
