2
s                      x[A]                      y[A]                      z[A]                      q[e]
N        3.4263488615842910        0.1776761783526754        0.0789864876038274        0.8893917005931230
O        3.4256138820200746        0.2067594458370592        0.0226621301949167       -0.9999970074601573

        RMSE         1.301032968E-01 kcal/mol
         MAE         9.042603845E-02 kcal/mol
     max. AE         9.558077379E-01 kcal/mol

Coordinates in bohr
s                   x[bohr]                   y[bohr]                   z[bohr]                      q[e]
+        6.4748609586685228        0.3357593161045553        0.1492628291831035        0.8893917005931230
-        6.4734720485843456        0.3907187264834736        0.0428252194878609       -0.9999970074601573
