1
s                      x[A]                      y[A]                      z[A]                      q[e]
O        3.4513448985082902        0.4171726410107863       -0.3961527977991799       -0.1106053068670343

        RMSE         5.442990840E-01 kcal/mol
         MAE         4.060072348E-01 kcal/mol
     max. AE         2.804042192E+00 kcal/mol

Coordinates in bohr
s                   x[bohr]                   y[bohr]                   z[bohr]                      q[e]
-        6.5220966226767123        0.7883420385443226       -0.7486202916743228       -0.1106053068670343
