4
s                      x[A]                      y[A]                      z[A]                      q[e]
N       -0.8899692589400010       -0.5495918865268975       -0.0000192543178766        0.2496045197011210
O       -0.4928560229953746       -0.2419878964171405        0.2015119821139013       -0.5400419943378842
O       -0.4928445780955178       -0.2419916573861303       -0.2015012782881334       -0.5400678065650053
N       -0.5102204996330265       -0.2618101770689575        0.0000043140655164        0.9999999695809796

        RMSE         2.582739791E-02 kcal/mol
         MAE         1.688650200E-02 kcal/mol
     max. AE         2.285883086E-01 kcal/mol

Coordinates in bohr
s                   x[bohr]                   y[bohr]                   z[bohr]                      q[e]
+       -1.6817981594732627       -1.0385781463095323       -0.0000363853875193        0.2496045197011210
-       -0.9313629027436034       -0.4572908499040531        0.3808024571934299       -0.5400419943378842
-       -0.9313412750173410       -0.4572979571054103       -0.3807822298942339       -0.5400678065650053
+       -0.9641770079006764       -0.4947495315179491        0.0000081524023133        0.9999999695809796
