5
s                      x[A]                      y[A]                      z[A]                      q[e]
O       -0.0000508224251131        0.0545494511942175       -0.5027222357770387       -0.2939731101550100
O       -0.0019004207769237        0.0706590942600953        0.5022065845870790       -0.3014313323470999
N        0.8546014773190410       -0.4573487942381630       -0.0011675802031496        0.3438127203507786
O        0.0036703890846385        0.6225031119196749       -0.0426523067541330       -0.0936345601683200
N       -0.8532287597106667       -0.4481106294531232       -0.0000222524120600        0.3452262823196513

        RMSE         4.123684559E-01 kcal/mol
         MAE         2.432171902E-01 kcal/mol
     max. AE         3.143969085E+00 kcal/mol

Coordinates in bohr
s                   x[bohr]                   y[bohr]                   z[bohr]                      q[e]
-       -0.0000960404644954        0.1030835230510994       -0.9500073427964401       -0.2939731101550100
-       -0.0035912747915157        0.1335263364244893        0.9490329032711499       -0.3014313323470999
+        1.6149627385446474       -0.8642639649184932       -0.0022064068134591        0.3438127203507786
-        0.0069360301438367        1.1763603937734080       -0.0806011783843265       -0.0936345601683200
+       -1.6123686782172264       -0.8468063635729191       -0.0000420509644242        0.3452262823196513
