6
s                      x[A]                      y[A]                      z[A]                      q[e]
O       -0.0546885105064335        0.0373169748626878       -0.4066213227995428       -0.3226858187223637
N        0.6579691011163959       -0.3866546256904662       -0.0249852209346544        0.7705282671874126
O        0.7142206584217250       -0.3094711391733096       -0.3621215550950937       -0.0525131824146932
O        0.4118528093592904       -0.4299710758231481       -0.1525898237210443       -0.1718982210568241
O        0.0283251603361953       -0.0318222476742001        0.2010477571612157       -0.7817525941825983
N       -0.7067467578855228       -0.3808927902186124        0.0000205679898620        0.5583215491890667

        RMSE         4.409811697E-01 kcal/mol
         MAE         2.603093361E-01 kcal/mol
     max. AE         3.232139663E+00 kcal/mol

Coordinates in bohr
s                   x[bohr]                   y[bohr]                   z[bohr]                      q[e]
-       -0.1033463070663824        0.0705188623210742       -0.7684029368625168       -0.3226858187223637
+        1.2433814001236569       -0.7306713476963915       -0.0472152247505522        0.7705282671874126
-        1.3496814375612254       -0.5848156967709986       -0.6843105632546148       -0.0525131824146932
-        0.7782890136894535       -0.8125275751742118       -0.2883529763646621       -0.1718982210568241
-        0.0535267954950901       -0.0601353328007256        0.3799251991722504       -0.7817525941825983
+       -1.3355578124588907       -0.7197830566746398        0.0000388678677904        0.5583215491890667
