5
s                      x[A]                      y[A]                      z[A]                      q[e]
O       -0.6520216805769278       -1.1369339961910443       -0.0019015962428586       -0.9614757093603687
N       -0.5542358968280150       -0.6084915117461529       -0.0074062382671630        0.3940682706662350
N        0.8268295670725815       -1.5008695081379004       -0.0131293131948206        0.1327345351548508
N       -1.9761296308437706       -0.8402010057205129        0.0071027355460536        0.1659912999003162
N       -0.8480724580777357       -2.3837179388676928        0.0005943030354156        0.2216062953890345

        RMSE         2.895269877E-01 kcal/mol
         MAE         1.682688184E-01 kcal/mol
     max. AE         3.602756901E+00 kcal/mol

Coordinates in bohr
s                   x[bohr]                   y[bohr]                   z[bohr]                      q[e]
-       -1.2321424041511393       -2.1484938755233873       -0.0035934961002023       -0.9614757093603687
+       -1.0473540539024493       -1.1498823068660340       -0.0139957619448234        0.3940682706662350
+        1.5624814341980429       -2.8362323204312307       -0.0248108061535706        0.1327345351548508
+       -3.7343437906968067       -1.5877497911459955        0.0134222249235955        0.1659912999003162
+       -1.6026246803107358       -4.5045740648007655        0.0011230699724638        0.2216062953890345
