4
s                      x[A]                      y[A]                      z[A]                      q[e]
N        1.8493509338637175        1.1718435407901178       -0.0691115901990951        0.9999999451685063
O        1.9918395470579793        1.1093137137008280        0.0741335641073188       -0.9999999380930692
O        1.9558974006379930        1.1291744878370096       -0.1387943109883888       -0.8559772289594353
N        2.1268180170547870        1.0393422251985154        0.0090076483855398        0.8655245928751740

        RMSE         5.399412551E-02 kcal/mol
         MAE         3.327498352E-02 kcal/mol
     max. AE         6.907039887E-01 kcal/mol

Coordinates in bohr
s                   x[bohr]                   y[bohr]                   z[bohr]                      q[e]
+        3.4947667748620992        2.2144633539800918       -0.1306019775711653        0.9999999451685063
-        3.7640312297955507        2.0962991061091003        0.1400921328669030       -0.9999999380930692
-        3.6961104167006718        2.1338305298660596       -0.2622832355396769       -0.8559772289594353
+        4.0191035709228435        1.9640721562491081        0.0170219884830926        0.8655245928751740
