2
s                      x[A]                      y[A]                      z[A]                      q[e]
N       -1.0789151295239683       -2.9414630450416510       -0.0936299744034721        0.9675908169312755
O       -1.0727167860341522       -2.9191310565972937       -0.0984600000265689       -0.9999999921940458

        RMSE         1.157146323E+00 kcal/mol
         MAE         8.626646129E-01 kcal/mol
     max. AE         4.975067172E+00 kcal/mol

Coordinates in bohr
s                   x[bohr]                   y[bohr]                   z[bohr]                      q[e]
+       -2.0388541074131594       -5.5585595632839446       -0.1769350087561891        0.9675908169312755
-       -2.0271409357858925       -5.5163582212872200       -0.1860624343627857       -0.9999999921940458
