4
s                      x[A]                      y[A]                      z[A]                      q[e]
N       -1.9684788260892270       -1.1407658090350468        0.0518194665596404        0.9999999998134372
O       -1.8766555854978646       -1.0189211036477790        0.3294417545877072       -0.3489678444553431
O       -1.8323322942278237       -1.0519336335838381       -0.3032862320190980       -0.3115537273861858
O       -2.0190455112720480       -1.3757097468078769        0.0798993583799356       -0.4249776962856686

        RMSE         4.296756220E-02 kcal/mol
         MAE         2.686998202E-02 kcal/mol
     max. AE         3.491735395E-01 kcal/mol

Coordinates in bohr
s                   x[bohr]                   y[bohr]                   z[bohr]                      q[e]
+       -3.7198858650713689       -2.1557349523625637        0.0979245997650408        0.9999999998134372
-       -3.5463650884016715       -1.9254818293435316        0.6225546904610566       -0.3489678444553431
-       -3.4626062069223984       -1.9878664696311610       -0.5731279161381541       -0.3115537273861858
-       -3.8154430511391468       -2.5997146495898189        0.1509879049378822       -0.4249776962856686
