1
s                      x[A]                      y[A]                      z[A]                      q[e]
N       -1.3906326253555312       -1.9643787868798044       -0.0034717289468155        0.0988022430842911

        RMSE         4.433798053E+00 kcal/mol
         MAE         3.716794139E+00 kcal/mol
     max. AE         1.620878655E+01 kcal/mol

Coordinates in bohr
s                   x[bohr]                   y[bohr]                   z[bohr]                      q[e]
+       -2.6279148030483555       -3.7121379138619215       -0.0065606168913055        0.0988022430842911
