1
s                      x[A]                      y[A]                      z[A]                      q[e]
O        0.6957033364236791       -0.9334393412161193       -0.0836516345158891       -0.0498402504295569

        RMSE         2.282065058E+00 kcal/mol
         MAE         1.854282225E+00 kcal/mol
     max. AE         7.930213456E+00 kcal/mol

Coordinates in bohr
s                   x[bohr]                   y[bohr]                   z[bohr]                      q[e]
-        1.3146887704080030       -1.7639447096262446       -0.1580786791819255       -0.0498402504295569
