1
s                      x[A]                      y[A]                      z[A]                      q[e]
N        2.3526976567670128        0.7578158838073364       -0.1534763109964417        0.0095473709911758

        RMSE         1.247934963E+00 kcal/mol
         MAE         9.830772720E-01 kcal/mol
     max. AE         4.971808663E+00 kcal/mol

Coordinates in bohr
s                   x[bohr]                   y[bohr]                   z[bohr]                      q[e]
+        4.4459542272960384        1.4320644739176376       -0.2900281945288665        0.0095473709911758
