9
s                      x[A]                      y[A]                      z[A]                      q[e]
O       -0.0744979924576953        0.1275978208123890        0.5004728639839225       -0.5352332530576588
N       -0.4093392996407020        0.0215890727361839        0.0527801863389199        0.3802179431033029
O       -0.0239276821398838        0.2239902473077857       -0.4677112792622063       -0.4545264355567568
N        0.5087653861775673       -0.1917460894507133        0.0863115195006370        0.9900181056011006
O        1.1380132656333157       -0.5693470336870430        0.0245423580005039       -0.4051964432493529
O       -0.0575681552780717        0.4204849884575086       -0.3420144360822430       -0.3442743512104222
O       -0.0592863103053833        0.3328224173966119        0.4548584727805877       -0.2527685457108060
O       -1.0541355432671677       -0.5900711937553148       -0.1607747223644041       -0.6963646309150617
N       -0.7113598215431280       -0.3199743187146570       -0.1498946481459660        0.9916999592729800

        RMSE         4.117707844E+01 kcal/mol
         MAE         4.008218983E+01 kcal/mol
     max. AE         9.685373185E+01 kcal/mol

Coordinates in bohr
s                   x[bohr]                   y[bohr]                   z[bohr]                      q[e]
-       -0.1407808026414671        0.2411249355406582        0.9457566461531206       -0.5352332530576588
+       -0.7735391687076447        0.0407974347739761        0.0997400970311893        0.3802179431033029
-       -0.0452167660613891        0.4232802221852826       -0.8838462235930935       -0.4545264355567568
+        0.9614272419883898       -0.3623475946893865        0.1631051333283166        0.9900181056011006
-        2.1505333991848561       -1.0759099640103233        0.0463783350938912       -0.4051964432493529
-       -0.1087880470233850        0.7946014680509873       -0.6463136151483412       -0.3442743512104222
-       -0.1120348894660825        0.6289432172924074        0.8595579393993249       -0.2527685457108060
-       -1.9920274758856475       -1.1150729507195065       -0.3038201931652434       -0.6963646309150617
+       -1.3442752393710675       -0.6046638295506571       -0.2832598326677407        0.9916999592729800
