13
s                      x[A]                      y[A]                      z[A]                      q[e]
O        0.1314561540439992        0.9208364171746777       -0.0000063855287902       -0.1999767066317056 
N        0.1330817684653105        0.1844963925086614       -0.0000045767500302        0.0634080301289089 
N        1.9943509708567941        0.9406149372427407        0.0017979164838704        0.1874564946651451 
O        0.8073404057928193        1.1962619026532448       -0.0060816397968413       -0.9500258741987696 
N        0.5271104078061316        0.6142890518429822        0.0009011492748821        0.5475515832534987 
N        0.8752764638930307        2.3010134715542758       -0.0075417623869814        0.2718509912535291 
N       -0.8474197456390118        1.5314729465603938       -0.0019228232167221        0.1092387079990242 
N       -1.3016183440616176        1.0357101900808048       -0.1420200639393223        0.0175720817803016 
O       -0.6520216805769278       -1.1369339961910443       -0.0019015962428586       -0.9614757093603687 
N       -0.5542358968280150       -0.6084915117461529       -0.0074062382671630        0.3940682706662350 
N        0.8268295670725815       -1.5008695081379004       -0.0131293131948206        0.1327345351548508 
N       -1.9761296308437706       -0.8402010057205129        0.0071027355460536        0.1659912999003162 
N       -0.8480724580777357       -2.3837179388676928        0.0005943030354156        0.2216062953890345 

        RMSE         2.658447657e-01 kcal/mol
         MAE         1.507512722e-01 kcal/mol
     max. AE         3.602756901e+00 kcal/mol

Coordinates in bohr
s                   x[bohr]                   y[bohr]                   z[bohr]                      q[e]
-        0.2484161106583503        1.7401285087842997       -0.0000120668997058       -0.1999767066317056 
+        0.2514880764777452        0.3486476277265638       -0.0000086488034754        0.0634080301289089 
+        3.7687768600177249        1.7775044921729650        0.0033975695049022        0.1874564946651451 
-        1.5256521464735606        2.2606072066159202       -0.0114926327773950       -0.9500258741987696 
+        0.9960942364927912        1.1608379857801361        0.0017029252043527        0.5475515832534987 
+        1.6540326810285697        4.3482849573148217       -0.0142518643825247        0.2718509912535291 
+       -1.6013911165868420        2.8940642279529949       -0.0036336090041232        0.1092387079990242 
+       -2.4597020120117352        1.9572084628535427       -0.2683790057287710        0.0175720817803016 
-       -1.2321423149168682       -2.1484937199250700       -0.0035934958399540       -0.9614757093603687 
+       -1.0473539780509282       -1.1498822235892072       -0.0139957609312218        0.3940682706662350 
+        1.5624813210399440       -2.8362321150254894       -0.0248108043567214        0.1327345351548508 
+       -3.7343435202479975       -1.5877496761579104        0.0134222239515305        0.1659912999003162 
+       -1.6026245642453811       -4.5045737385703051        0.0011230698911287        0.2216062953890345 

total molecule built from fragment files:  /home/boittier/MDCM-1/examples/butadiene/4-fit-frags/frag1/fit1/8charges.xyz /home/boittier/MDCM-1/examples/butadiene/4-fit-frags/frag2/fit1/5charges.xyz
