20
s                      x[A]                      y[A]                      z[A]                      q[e]
O        0.0239017532972760        0.5617636053086510        0.0000041308389682       -0.0254088780247022 
N        0.4960602611699842        0.4526240683974967       -0.0000017797102246        0.3854378946888749 
O        0.6756890224348326        1.1195281213339177       -0.0947256224602723       -0.5054398442787086 
O        0.8812244266209459        1.7510723276943398        0.0892488031505044       -0.7461595299331032 
N        0.8689156999423131        1.9859526932362062        0.0297545243353920        0.9753185075993551 
N        0.8898739672719939        1.0666122321047069       -0.3015231146050282        0.1178945462244082 
O        0.8389498802204122        1.4561447485368366       -0.0738432421428747       -0.4561461408974640 
N        2.0183777872761253        0.9525875489905935        0.0067966884528467        0.1722946895212533 
N       -0.4477561416431283        0.4106117704894195       -0.1387339376157776        0.0266388875350072 
N       -0.9473559730729318        1.4934066580084848       -0.0440753815199235        0.1026451758150115 
O       -0.8386411392640568       -1.1048968174756895       -0.3359477801754898       -0.6891990483051895 
O       -0.9266975449085922       -1.9742828225388922        0.0994161011673338       -0.0783668322920274 
O       -0.8472843967815115       -1.0794479498851297        0.3046625933298098       -0.6861520261856009 
N       -0.9258107086061896       -0.9367595116745684       -0.0122743585280456        0.9998771774285014 
N        1.2046764146717630       -1.4832186670888072       -0.0893294555642922        0.0417095013864959 
N        1.1612243167341769       -1.4944197624723603        0.0882390265883321        0.0289373370986352 
N       -2.4585905630083400       -0.8973934485814506        0.0995523882470683        0.0507782515274367 
N       -1.0959486662555995       -0.9551051013110627       -0.0658969424903955        0.0644782268702726 
N       -0.8823167887327432       -2.4500267365876103       -0.1845195717072115        0.4388311796147203 
O       -0.8843845681723936       -2.5281332606118885       -0.3561918556016555       -0.2179690753931765 

        RMSE         2.375853553e-01 kcal/mol
         MAE         1.321864922e-01 kcal/mol
     max. AE         3.309806523e+00 kcal/mol

Coordinates in bohr
s                   x[bohr]                   y[bohr]                   z[bohr]                      q[e]
-        0.0451677643789682        1.0615792844013907        0.0000078061537529       -0.0254088780247022 
+        0.9374179674446226        0.8553354651166134       -0.0000033631646636        0.3854378946888749 
-        1.2768671059068317        2.1156013858532381       -0.1790054705494884       -0.5054398442787086 
-        1.6652727007747352        3.3090468855622897        0.1686557827649537       -0.7461595299331032 
+        1.6420125800835486        3.7529064165386221        0.0562278979150214        0.9753185075993551 
+        1.6816179625324725        2.0156048547669201       -0.5697960658327380        0.1178945462244082 
-        1.5853853917853700        2.7517145744734721       -0.1395434937598731       -0.4561461408974640 
+        3.8141809594286564        1.8001294477443002        0.0128438788057619        0.1722946895212533 
+       -0.8461364174182823        0.7759437339189146       -0.2621691274133460        0.0266388875350072 
+       -1.7902432027713611        2.8221293731869062       -0.0832903939156596        0.1026451758150115 
-       -1.5848019559763999       -2.0879522307052412       -0.6348492510101029       -0.6891990483051895 
-       -1.7512044341855824       -3.7308535585983065        0.1878691900611975       -0.0783668322920274 
-       -1.6011353443332963       -2.0398608442389201        0.5757288203696146       -0.6861520261856009 
+       -1.7495285565772982       -1.7702187942796770       -0.0231951743038418        0.9998771774285014 
+        2.2765083286587009       -2.8028768619743705       -0.1688081937273318        0.0417095013864959 
+        2.1943957699268521       -2.8240438630214584        0.1667475817527376        0.0289373370986352 
+       -4.6460624822435657       -1.6958277217837450        0.1881267352976822        0.0507782515274367 
+       -2.0710426767947143       -1.8048869317919511       -0.1245271647933800        0.0644782268702726 
+       -1.6673369658463604       -4.6298791968944535       -0.3486914300604588        0.4388311796147203 
-       -1.6712445023921607       -4.7774791252223423       -0.6731050064581069       -0.2179690753931765 

total molecule built from fragment files:  /home/boittier/MDCM-1/examples/butadiene/4-fit-frags/frag1/fit1/10charges.xyz /home/boittier/MDCM-1/examples/butadiene/4-fit-frags/frag2/fit1/10charges.xyz
