14
s                      x[A]                      y[A]                      z[A]                      q[e]
O        0.0465243649841832        1.1479654979530221        0.0000019747199147       -0.3813081385338495
N        0.3394503264761886        0.3156434257061211        0.0000040417183023        0.3410044797876159
N        1.8791333296848167        1.3373950558338570        0.0113510524622434        0.5002062537609755
O        1.6488916243846623        1.4286473244405660        0.0162145123652049       -0.7438952703737647
N        1.7354169007380147        0.9678762981197833        0.0659519546320130        0.2054604538979936
N       -0.2212877644981867        1.2475506282371145       -0.0186614855215123        0.9995285484363946
O        0.9278987756004932        1.6556620370428103        0.0993335914177819       -0.6648066926408951
N        1.0007866257387998        2.0264565052298260        0.0584745451947973        0.7284918506044306
O        0.0609956543046050        1.1551937921997983       -0.0391327021777007       -0.9420147773206879
O       -0.6599225920148888       -1.1264729007831717       -0.0019252333683551       -0.9547614512627366
N       -0.5502923054315335       -0.5956725404432560       -0.0073204825736317        0.4001411018082928
N        0.8320572294659312       -1.4812886858744165       -0.0133651778992312        0.1305296825932427
N       -1.9983318036647217       -0.8207388120995278        0.0071765915757637        0.1673547322331972
N       -0.8595419935581601       -2.4159740311052360        0.0005839835561376        0.2140692270097911

        RMSE         6.063630261E-01 kcal/mol
         MAE         3.568090534E-01 kcal/mol
     max. AE         5.072521337E+00 kcal/mol

Coordinates in bohr
s                   x[bohr]                   y[bohr]                   z[bohr]                      q[e]
-        0.0879183079809463        2.1693403926060308        0.0000037316798132       -0.3813081385338495
+        0.6414681502372427        0.5964796278858642        0.0000076377406676        0.3410044797876159
+        3.5510473463239562        2.5273103770673702        0.0214503803893437        0.5002062537609755
-        3.1159535806482923        2.6997521730607636        0.0306409876280866       -0.7438952703737647
+        3.2794626558856810        1.8290211267683638        0.1246311316931244        0.2054604538979936
+       -0.4181732698163826        2.3575290150110018       -0.0352650967298547        0.9995285484363946
-        1.7534745580325828        3.1287478063285250        0.1877132828377360       -0.6648066926408951
+        1.8912126326673957        3.8294478000367702        0.1105008757288730        0.7284918506044306
-        0.1152650814788064        2.1829998890866604       -0.0739500896649614       -0.9420147773206879
-       -1.2470729629103829       -2.1287252702302237       -0.0036381637937838       -0.9547614512627366
+       -1.0399017462123876       -1.1256579618934557       -0.0138337071703505        0.4001411018082928
+        1.5723602843978293       -2.7992299290419789       -0.0252565258475687        0.1305296825932427
+       -3.7762998167184878       -1.5509715754017011        0.0135617925924612        0.1673547322331972
+       -1.6242989611549594       -4.5655292450072285        0.0011035689828710        0.2140692270097911
